# Converted from an INTERFACE force field surface model by
# tools/iff_silica_to_polypaves.py. Types and charges are the
# published ones; see SOURCES.md for the model and its citation.
@<TRIPOS>MOLECULE
silica
 2928 3736 1 0 0
SURFACE
USER_CHARGES

@<TRIPOS>ATOM
      1 Si1         15.599078    20.137935    20.299447 sc4    1 silica          1.1000
      2 Si2         14.390764     7.019159    17.896755 sc4    1 silica          1.1000
      3 Si3         18.730529    14.051617    23.601054 sc4    1 silica          1.1000
      4 Si4         17.048314    14.428980    18.223984 sc4    1 silica          1.1000
      5 Si5          8.561892     2.245315    18.972849 sc4    1 silica          1.1000
      6 Si6         17.834977     2.048153    15.682573 sc4    1 silica          1.1000
      7 Si7         13.848732     2.664876    23.355414 sc4    1 silica          1.1000
      8 O1           8.651431    19.837511    17.808060 oc23   1 silica         -0.5500
      9 O2          14.088645     6.011450    12.427048 oc23   1 silica         -0.5500
     10 O3          12.309352    12.843460     8.139313 oc23   1 silica         -0.5500
     11 O4           8.161405     3.137185    13.290411 oc23   1 silica         -0.5500
     12 O5          16.451454    17.898825    14.270091 oc23   1 silica         -0.5500
     13 O6           1.908792    18.832827    22.188831 oc23   1 silica         -0.5500
     14 O7           3.870114     5.164456    18.580864 oc23   1 silica         -0.5500
     15 O8           8.052192     7.959375    10.693451 oc23   1 silica         -0.5500
     16 O9          18.011837    17.693033    16.184783 oc23   1 silica         -0.5500
     17 O10         16.429644    14.295112    10.361078 oc23   1 silica         -0.5500
     18 O11          9.608262     2.093993     4.194771 oc23   1 silica         -0.5500
     19 O12         12.125758    10.169771    21.890617 oc23   1 silica         -0.5500
     20 O13         19.150770     2.230131    14.715547 oc23   1 silica         -0.5500
     21 O14          0.415041     0.629861    13.601705 oc23   1 silica         -0.5500
     22 O15          1.982830    13.204458     9.332148 oc23   1 silica         -0.5500
     23 Si8          7.454243     7.614661    12.055200 sc4    1 silica          1.1000
     24 Si9         13.221756     4.632635    12.402732 sc4    1 silica          1.1000
     25 Si10        14.002170     6.735557     5.343483 sc4    1 silica          1.1000
     26 Si11        14.447204     7.568381    12.013060 sc4    1 silica          1.1000
     27 Si12        17.770755     0.950578    18.828581 sc4    1 silica          1.1000
     28 Si13        16.802958     5.717076     5.887621 sc4    1 silica          1.1000
     29 Si14         2.470715     5.098330    14.240274 sc4    1 silica          1.1000
     30 Si15        11.050160     9.260795     8.241655 sc4    1 silica          1.1000
     31 O16         13.507185     2.614661    21.775929 oc23   1 silica         -0.5500
     32 O17         18.122823     4.290531     8.760467 oc23   1 silica         -0.5500
     33 O18         10.218789    17.266697    12.458989 oc23   1 silica         -0.5500
     34 O19         18.353425     4.432891    21.264820 oc23   1 silica         -0.5500
     35 O20         15.269707     8.615409     8.413535 oc23   1 silica         -0.5500
     36 O21         17.677185     3.734605    23.816405 oc24   1 silica         -0.6750
     37 O22         20.438223     2.569786    18.315441 oc23   1 silica         -0.5500
     38 O23         17.186473     2.364789    19.648011 oc23   1 silica         -0.5500
     39 O24          3.001468     3.793803    13.422143 oc23   1 silica         -0.5500
     40 O25         10.613632    10.809274     8.301957 oc23   1 silica         -0.5500
     41 O26         10.188351     2.539321     8.665689 oc23   1 silica         -0.5500
     42 O27         12.687424     9.094653     8.294540 oc23   1 silica         -0.5500
     43 O28          8.934884     2.058631     6.751432 oc23   1 silica         -0.5500
     44 O29          0.058981    16.926582    17.384913 oc23   1 silica         -0.5500
     45 Si16        17.510241    12.968627    13.601917 sc4    1 silica          1.1000
     46 Si17         1.442471     8.042653     5.667713 sc4    1 silica          1.1000
     47 Si18        13.808054    17.581705    20.131547 sc4    1 silica          1.1000
     48 Si19        14.695947    11.825683    13.469029 sc4    1 silica          1.1000
     49 Si20         0.604044    11.900716    18.173605 sc4    1 silica          1.1000
     50 Si21         2.954178    12.743858     8.211671 sc4    1 silica          1.1000
     51 Si22         4.205436    19.367382    23.650466 sc4    1 silica          1.1000
     52 Si23        11.362761     1.272666    18.638019 sc4    1 silica          1.1000
     53 O30          3.356040    14.538526    18.413532 oc23   1 silica         -0.5500
     54 O31         14.198301    10.981755     7.272954 oc23   1 silica         -0.5500
     55 O32         19.597337     6.226896     9.193929 oc23   1 silica         -0.5500
     56 O33          2.420382    16.752775    15.780192 oc23   1 silica         -0.5500
     57 O34         17.082783     6.726400     9.285589 oc23   1 silica         -0.5500
     58 O35         17.059401    16.764749     6.291858 oc23   1 silica         -0.5500
     59 O36          5.283816    19.006096     6.190132 oc23   1 silica         -0.5500
     60 O37         39.945637    20.190181     5.697270 oc23   1 silica         -0.5500
     61 O38          0.900987     5.104876    14.517288 oc23   1 silica         -0.5500
     62 O39         14.365729    16.667467    16.686522 oc23   1 silica         -0.5500
     63 O40         14.679781     5.399955    17.969468 oc23   1 silica         -0.5500
     64 O41         18.960364     6.452742    14.357086 oc23   1 silica         -0.5500
     65 O42          7.908349    14.614056    16.344137 oc23   1 silica         -0.5500
     66 O43          6.020488     1.635631    12.469164 oc23   1 silica         -0.5500
     67 O44         10.221288     4.139888    19.507567 oc23   1 silica         -0.5500
     68 Si24        13.569673    18.272459    24.501741 sc4    1 silica          1.1000
     69 Si25        16.296765     9.209378    18.532681 sc4    1 silica          1.1000
     70 Si26         0.242734    19.151770     6.719845 sc4    1 silica          1.1000
     71 Si27        14.853578     9.139275    22.236213 sc4    1 silica          1.1000
     72 Si28        13.902109     4.018016    18.070957 sc4    1 silica          1.1000
     73 Si29         1.791157    14.615464    18.446701 sc4    1 silica          1.1000
     74 Si30        14.965007     1.339542     4.295176 sc4    1 silica          1.1000
     75 Si31        14.322269    14.063798     4.293121 sc4    1 silica          1.1000
     76 O45         14.002896    12.747545     5.156295 oc23   1 silica         -0.5500
     77 O46          9.036235     8.032088    17.949873 oc23   1 silica         -0.5500
     78 O47         11.618356     9.159245     4.311842 oc24   1 silica         -0.6750
     79 O48         40.118467     4.263476    23.081280 oc23   1 silica         -0.5500
     80 O49         13.058804     5.985845    22.853652 oc23   1 silica         -0.5500
     81 O50         40.211312    14.102454    22.717931 oc23   1 silica         -0.5500
     82 O51          5.777471    16.235041    10.146865 oc23   1 silica         -0.5500
     83 O52         16.183925    10.249611    22.221646 oc23   1 silica         -0.5500
     84 O53          5.495751    14.218960    16.889030 oc23   1 silica         -0.5500
     85 O54          8.549112    18.844220    13.340838 oc23   1 silica         -0.5500
     86 O55          8.744235    12.579704    22.776030 oc23   1 silica         -0.5500
     87 O56         10.126710    17.098110    21.144632 oc23   1 silica         -0.5500
     88 O57          1.259055    15.906942    19.143628 oc23   1 silica         -0.5500
     89 O58         14.050790    11.445006    12.059662 oc23   1 silica         -0.5500
     90 Si32        10.090387    16.689136    10.951367 sc4    1 silica          1.1000
     91 Si33        13.052515    11.252017    24.090374 sc4    1 silica          1.1000
     92 Si34        16.705357     8.671922    13.358496 sc4    1 silica          1.1000
     93 Si35         7.615260    10.966466     9.845506 sc4    1 silica          1.1000
     94 Si36         8.133547    10.701675     4.808528 sc4    1 silica          1.1000
     95 Si37        13.284728    13.471196     9.304128 sc4    1 silica          1.1000
     96 Si38        14.107996     9.735398     8.361164 sc4    1 silica          1.1000
     97 Si39         7.322131    15.618948    10.254260 sc4    1 silica          1.1000
     98 O59         12.286937     3.069315     7.259852 oc23   1 silica         -0.5500
     99 O60         13.915896     9.017216    20.745210 oc23   1 silica         -0.5500
    100 O61          2.509966    11.289471     7.795090 oc23   1 silica         -0.5500
    101 O62          7.788130    14.991460     8.836662 oc23   1 silica         -0.5500
    102 O63          2.550902    14.420320    14.919071 oc23   1 silica         -0.5500
    103 O64         19.160406    10.327959    11.585238 oc23   1 silica         -0.5500
    104 O65          1.802176    13.983419    21.064931 oc23   1 silica         -0.5500
    105 O66         18.211073    17.065504    21.527244 oc23   1 silica         -0.5500
    106 O67         17.077664     5.372858    13.471838 oc23   1 silica         -0.5500
    107 O68         14.620034    12.661242     9.494610 oc23   1 silica         -0.5500
    108 O69         17.582404    13.010929    17.844157 oc23   1 silica         -0.5500
    109 O70         17.169097    14.400723    12.935798 oc23   1 silica         -0.5500
    110 O71         16.238430    14.468962     7.121816 oc23   1 silica         -0.5500
    111 O72         13.512789    14.947086     8.732138 oc23   1 silica         -0.5500
    112 O73         13.342700     9.981587    16.809518 oc23   1 silica         -0.5500
    113 Si40        39.819089    11.243647    20.879373 sc4    1 silica          1.1000
    114 Si41         2.544810    12.943229    14.321674 sc4    1 silica          1.1000
    115 Si42         0.637026    14.981267    21.490038 sc4    1 silica          1.1000
    116 Si43        15.157954    17.651435    11.142496 sc4    1 silica          1.1000
    117 Si44        13.119155     9.961990    15.213768 sc4    1 silica          1.1000
    118 Si45        18.153222    17.504890     7.292903 sc4    1 silica          1.1000
    119 Si46        40.242113     5.994794    15.345878 sc4    1 silica          1.1000
    120 Si47        18.233650    12.408176    16.508471 sc4    1 silica          1.1000
    121 O74          8.946736    10.519085    18.764345 oc23   1 silica         -0.5500
    122 O75         16.300959    11.994768    13.367538 oc23   1 silica         -0.5500
    123 O76          6.362559     5.299524     9.321251 oc23   1 silica         -0.5500
    124 O77         13.125968    14.857345    17.853529 oc23   1 silica         -0.5500
    125 O78          0.917677     2.836736    12.527098 oc23   1 silica         -0.5500
    126 O79         15.674910    14.677778    17.746751 oc23   1 silica         -0.5500
    127 O80          2.783727    12.921642     4.362930 oc23   1 silica         -0.5500
    128 O81         12.968659    14.840275     4.120124 oc23   1 silica         -0.5500
    129 O82          4.139239     7.246454    16.770518 oc23   1 silica         -0.5500
    130 O83          5.480915     4.830638     6.822846 oc23   1 silica         -0.5500
    131 O84         12.342208    13.495973    15.718363 oc23   1 silica         -0.5500
    132 O85         10.329735    12.740419    11.718269 oc23   1 silica         -0.5500
    133 O86         17.939311    13.245847    15.163152 oc23   1 silica         -0.5500
    134 O87         12.244687    17.744367    19.832105 oc23   1 silica         -0.5500
    135 O88         17.315399     8.948978    17.339090 oc23   1 silica         -0.5500
    136 O89          1.346207    16.326357    21.800222 oc23   1 silica         -0.5500
    137 Si48         7.124186    15.724226    21.821280 sc4    1 silica          1.1000
    138 Si49         3.286417     1.613287    16.140731 sc4    1 silica          1.1000
    139 Si50        10.567915     4.040021    21.021776 sc4    1 silica          1.1000
    140 Si51        15.468741     1.075956    13.920293 sc4    1 silica          1.1000
    141 Si52        18.623574    16.771627    17.308423 sc4    1 silica          1.1000
    142 Si53        10.956630    18.328268    20.592656 sc4    1 silica          1.1000
    143 Si54        13.060457    16.004058    22.697250 sc4    1 silica          1.1000
    144 Si55         9.977787    17.791061     4.501626 sc4    1 silica          1.1000
    145 O90          2.365014    17.837797    17.969043 oc23   1 silica         -0.5500
    146 O91          5.559045    15.780450    19.026746 oc23   1 silica         -0.5500
    147 O92         16.803080     1.681973    14.444978 oc23   1 silica         -0.5500
    148 O93          8.603618     6.804209     8.475067 oc23   1 silica         -0.5500
    149 O94         15.433304     2.432596    23.634696 oc23   1 silica         -0.5500
    150 O95          6.766674     6.223996    11.882320 oc23   1 silica         -0.5500
    151 O96         19.210719     5.786723    11.797449 oc23   1 silica         -0.5500
    152 O97         39.862469    15.357844    20.373551 oc23   1 silica         -0.5500
    153 O98         17.377645    18.208695    23.752970 oc23   1 silica         -0.5500
    154 O99         12.461299     5.686830    15.409973 oc23   1 silica         -0.5500
    155 O100        11.690036    10.657343    10.910785 oc23   1 silica         -0.5500
    156 O101         1.060633    12.652169    13.843284 oc23   1 silica         -0.5500
    157 O102        13.140804    16.763506    24.105979 oc23   1 silica         -0.5500
    158 O103         8.545322    17.029168     4.773613 oc23   1 silica         -0.5500
    159 O104         0.582835    12.529033     5.751639 oc23   1 silica         -0.5500
    160 O105         5.390086     7.908828    23.362237 oc24   1 silica         -0.6750
    161 Si56         1.842006    13.592095     5.477953 sc4    1 silica          1.1000
    162 Si57        19.304853    15.801869     9.621278 sc4    1 silica          1.1000
    163 Si58        17.917541     9.503462    16.036998 sc4    1 silica          1.1000
    164 Si59        10.881363    12.247337     7.676177 sc4    1 silica          1.1000
    165 Si60        10.692568    12.254836     4.680881 sc4    1 silica          1.1000
    166 Si61         0.886490    19.987371     9.658355 sc4    1 silica          1.1000
    167 Si62         3.139848     6.463059    11.673272 sc4    1 silica          1.1000
    168 Si63        18.214540     5.862294     8.520458 sc4    1 silica          1.1000
    169 O106         2.433973     9.182074     9.185402 oc23   1 silica         -0.5500
    170 O107        14.859101    10.359115     4.806688 oc23   1 silica         -0.5500
    171 O108         9.487963    11.247542     4.214908 oc23   1 silica         -0.5500
    172 O109         8.204219     1.002575    22.475242 oc23   1 silica         -0.5500
    173 O110        16.437626     1.942990     4.595019 oc23   1 silica         -0.5500
    174 O111         8.508152     6.786352     5.967345 oc23   1 silica         -0.5500
    175 O112         1.668681    17.550797     3.903616 oc23   1 silica         -0.5500
    176 O113        14.070584    10.318429     9.829804 oc23   1 silica         -0.5500
    177 O114        14.765289    13.735699     2.770862 oc24   1 silica         -0.6750
    178 O115         8.108310     6.012071    20.229024 oc23   1 silica         -0.5500
    179 O116        16.818842     5.733441    16.167620 oc23   1 silica         -0.5500
    180 O117        11.044435    11.870678     6.147803 oc23   1 silica         -0.5500
    181 O118         1.329138    14.783223    16.931524 oc23   1 silica         -0.5500
    182 O119        14.732069    18.541187    23.477420 oc23   1 silica         -0.5500
    183 Si64        16.901125    15.192115    11.543830 sc4    1 silica          1.1000
    184 Si65        40.145356    20.264799    14.871714 sc4    1 silica          1.1000
    185 Si66        10.997590     4.108069    18.084886 sc4    1 silica          1.1000
    186 Si67        13.178337    16.025519     7.519562 sc4    1 silica          1.1000
    187 Si68         0.683037     1.392699    17.245887 sc4    1 silica          1.1000
    188 Si69        16.609327    19.489607     9.245512 sc4    1 silica          1.1000
    189 Si70        11.091362    19.649907    23.364432 sc4    1 silica          1.1000
    190 O120        17.166476     8.714473    14.878891 oc23   1 silica         -0.5500
    191 O121         5.624718     1.555054    21.770689 oc23   1 silica         -0.5500
    192 O122        15.850683    16.361284    11.721078 oc23   1 silica         -0.5500
    193 O123         1.154567    19.458118    15.132510 oc23   1 silica         -0.5500
    194 O124         0.614216     7.316972    15.711257 oc23   1 silica         -0.5500
    195 O125         3.558267    18.906078    15.992686 oc23   1 silica         -0.5500
    196 O126         6.051248    17.410176     4.011668 oc23   1 silica         -0.5500
    197 O127         8.452356    16.699494    10.572461 oc23   1 silica         -0.5500
    198 O128        18.747099    16.771544    13.553922 oc23   1 silica         -0.5500
    199 O129         4.569882    12.690079     8.270031 oc23   1 silica         -0.5500
    200 O130        15.361020    20.229955    14.480177 oc23   1 silica         -0.5500
    201 O131        16.074350    18.210808     9.989823 oc23   1 silica         -0.5500
    202 O132         1.627814    18.908564     5.978392 oc23   1 silica         -0.5500
    203 O133        13.018933     8.440939    14.649942 oc23   1 silica         -0.5500
    204 O134        18.119840    11.703998    20.865728 oc23   1 silica         -0.5500
    205 O135         0.072888    17.225266    23.581624 oc23   1 silica         -0.5500
    206 Si71         2.474461    16.223233     4.200319 sc4    1 silica          1.1000
    207 Si72         4.930780     8.592000    16.440787 sc4    1 silica          1.1000
    208 Si73        17.363374     3.242094     4.503940 sc4    1 silica          1.1000
    209 Si74        18.472394    17.043918    23.220023 sc4    1 silica          1.1000
    210 Si75         4.589596     4.290448    19.790060 sc4    1 silica          1.1000
    211 Si76        18.633290     4.585485    22.891803 sc4    1 silica          1.1000
    212 Si77        40.006473     1.872050    13.123834 sc4    1 silica          1.1000
    213 Si78         4.410961     1.374730    18.989469 sc4    1 silica          1.1000
    214 O136        17.143740     8.991280     4.994417 oc23   1 silica         -0.5500
    215 O137         2.352686    13.212785    23.392384 oc24   1 silica         -0.6750
    216 O138         1.051418     2.169068     5.375283 oc23   1 silica         -0.5500
    217 O139         8.473925     1.090809     9.052109 oc23   1 silica         -0.5500
    218 O140        16.179450    12.098223     6.146623 oc23   1 silica         -0.5500
    219 O141         8.381967     3.880101    18.630252 oc23   1 silica         -0.5500
    220 O142        12.381596    19.352840    24.245124 oc23   1 silica         -0.5500
    221 O143        12.085283     7.013441    20.670703 oc23   1 silica         -0.5500
    222 O144        14.111866    14.802572    22.622932 oc23   1 silica         -0.5500
    223 O145        19.785648    12.152913    16.870262 oc23   1 silica         -0.5500
    224 O146        19.263813     0.424641    19.453694 oc23   1 silica         -0.5500
    225 O147         0.932017    10.435060    23.942872 oc24   1 silica         -0.6750
    226 O148         2.809565    41.288562     9.466619 oc23   1 silica         -0.5500
    227 O149        10.221047     6.257805    14.484828 oc23   1 silica         -0.5500
    228 O150         6.304950     3.808942    11.405394 oc23   1 silica         -0.5500
    229 Si79         2.763618    19.672447    14.903277 sc4    1 silica          1.1000
    230 Si80         6.097731     9.598341     7.569634 sc4    1 silica          1.1000
    231 Si81         0.538654     8.911440    15.208976 sc4    1 silica          1.1000
    232 Si82         2.930489     9.754416     7.805382 sc4    1 silica          1.1000
    233 Si83         6.531962     4.437904     7.974132 sc4    1 silica          1.1000
    234 Si84        12.710606     1.620815     6.468776 sc4    1 silica          1.1000
    235 Si85         2.508640     2.873391    12.158013 sc4    1 silica          1.1000
    236 O151         1.709883     6.947399    20.257684 oc23   1 silica         -0.5500
    237 O152        17.310521     9.311798    10.083587 oc23   1 silica         -0.5500
    238 O153        10.748727     3.802209    14.195277 oc23   1 silica         -0.5500
    239 O154         0.018142     8.168233    10.991052 oc23   1 silica         -0.5500
    240 O155         2.944140     2.189482     8.502778 oc23   1 silica         -0.5500
    241 O156        14.032809    12.389034    23.615762 oc23   1 silica         -0.5500
    242 O157        10.011409     1.662798    19.363606 oc23   1 silica         -0.5500
    243 O158        18.403697     1.667455     9.523400 oc23   1 silica         -0.5500
    244 O159         7.862470    18.954264    15.737815 oc23   1 silica         -0.5500
    245 O160        17.903915     6.173117     7.067471 oc23   1 silica         -0.5500
    246 O161        11.327848    19.316007    21.829897 oc23   1 silica         -0.5500
    247 O162        15.511797     7.489412    10.874901 oc23   1 silica         -0.5500
    248 O163         0.102889    11.935685     8.377082 oc23   1 silica         -0.5500
    249 O164         4.130330     2.795172    15.592084 oc23   1 silica         -0.5500
    250 O165        13.202446     3.970763    13.935213 oc23   1 silica         -0.5500
    251 O166         1.698292     6.116770    10.940130 oc23   1 silica         -0.5500
    252 Si86         5.715830     9.442267    13.633717 sc4    1 silica          1.1000
    253 Si87        13.499525     6.985018    15.172596 sc4    1 silica          1.1000
    254 Si88         7.470410     5.088262    19.051464 sc4    1 silica          1.1000
    255 Si89        17.835702     7.899961    20.687701 sc4    1 silica          1.1000
    256 Si90        10.280269    10.288101    14.477368 sc4    1 silica          1.1000
    257 Si91         1.707113    15.409219    15.634979 sc4    1 silica          1.1000
    258 Si92         9.976134     0.976150     8.911029 sc4    1 silica          1.1000
    259 Si93         7.628967    11.598926    14.405033 sc4    1 silica          1.1000
    260 O167         6.502290     8.311920     6.702469 oc23   1 silica         -0.5500
    261 O168         3.984741    10.524554    10.620196 oc23   1 silica         -0.5500
    262 O169         8.167694     7.080809    15.698792 oc23   1 silica         -0.5500
    263 O170         5.889828    14.184034    13.222869 oc23   1 silica         -0.5500
    264 O171         6.409002     8.481998    17.048052 oc23   1 silica         -0.5500
    265 O172        13.716781    17.313599    10.651594 oc23   1 silica         -0.5500
    266 O173        12.827841    17.423393     8.211198 oc23   1 silica         -0.5500
    267 O174         4.975166    12.779282    11.331595 oc23   1 silica         -0.5500
    268 O175        17.344870    15.050708    19.735691 oc23   1 silica         -0.5500
    269 O176        17.276495     9.142009    19.840273 oc23   1 silica         -0.5500
    270 O177        16.630250     6.895070    20.356129 oc23   1 silica         -0.5500
    271 O178         3.497892    12.965892    13.110590 oc23   1 silica         -0.5500
    272 O179        15.248259     8.149920    13.180611 oc23   1 silica         -0.5500
    273 O180        13.066101     3.892771    24.179660 oc23   1 silica         -0.5500
    274 O181         1.834052     1.989647    16.453653 oc23   1 silica         -0.5500
    275 O182        10.363236    18.075035    17.310690 oc23   1 silica         -0.5500
    276 Si94        16.314384     8.042073     9.596771 sc4    1 silica          1.1000
    277 Si95         6.862100    13.452552    16.713812 sc4    1 silica          1.1000
    278 Si96         4.477601     1.476731    22.928985 sc4    1 silica          1.1000
    279 Si97        18.338468    16.234337    20.091933 sc4    1 silica          1.1000
    280 Si98        17.237229     3.993016    20.211742 sc4    1 silica          1.1000
    281 Si99         1.613466    17.368910    22.934958 sc4    1 silica          1.1000
    282 Si100       15.539615     6.232531    21.207901 sc4    1 silica          1.1000
    283 Si101       13.834097    10.965390    18.079669 sc4    1 silica          1.1000
    284 O183        12.996558    10.738466    19.411224 oc23   1 silica         -0.5500
    285 O184        40.218447     8.496043     5.526443 oc23   1 silica         -0.5500
    286 O185        16.220168    41.247380    24.096159 oc23   1 silica         -0.5500
    287 O186         3.962116     2.731279    19.624214 oc23   1 silica         -0.5500
    288 O187        14.851844     6.413879    14.531689 oc23   1 silica         -0.5500
    289 O188         9.818947    16.193402    15.450767 oc23   1 silica         -0.5500
    290 O189        11.791267    10.743314    14.783798 oc23   1 silica         -0.5500
    291 O190        14.172258     5.981784    20.604601 oc23   1 silica         -0.5500
    292 O191        10.867373     6.721843     4.927040 oc23   1 silica         -0.5500
    293 O192        18.055377    15.310404    17.293031 oc23   1 silica         -0.5500
    294 O193         4.272923    19.212675    22.036537 oc23   1 silica         -0.5500
    295 O194        15.342797    10.555296    18.394575 oc23   1 silica         -0.5500
    296 O195        12.607197     1.106698    19.676128 oc23   1 silica         -0.5500
    297 O196         2.595373     4.598122     7.990681 oc23   1 silica         -0.5500
    298 O197        15.463096     7.858860    18.634879 oc23   1 silica         -0.5500
    299 Si102       18.710613     9.565154     5.218763 sc4    1 silica          1.1000
    300 Si103       16.982802    13.075563     7.125168 sc4    1 silica          1.1000
    301 Si104        5.940907     5.271019    10.923958 sc4    1 silica          1.1000
    302 Si105       40.260054    13.074775    12.636638 sc4    1 silica          1.1000
    303 Si106       19.676838    12.237269     6.555370 sc4    1 silica          1.1000
    304 Si107        9.734246     3.075513    13.021966 sc4    1 silica          1.1000
    305 Si108       10.231650    11.087365    11.519703 sc4    1 silica          1.1000
    306 Si109        0.087791     9.337071    11.990468 sc4    1 silica          1.1000
    307 O198        10.571302    15.195389    10.861752 oc23   1 silica         -0.5500
    308 O199         0.333348    12.442689    11.102127 oc23   1 silica         -0.5500
    309 O200         9.985407     8.845481    15.066715 oc23   1 silica         -0.5500
    310 O201        18.387047    16.498839     8.512717 oc23   1 silica         -0.5500
    311 O202         7.724030     3.285349     5.304813 oc23   1 silica         -0.5500
    312 O203         7.296129    11.852697    20.530095 oc23   1 silica         -0.5500
    313 O204         5.990212    12.275344    22.595973 oc23   1 silica         -0.5500
    314 O205         7.072059    14.240588    21.304552 oc23   1 silica         -0.5500
    315 O206         1.935642     9.754043    15.337828 oc23   1 silica         -0.5500
    316 O207        13.014135     5.475071     4.810158 oc23   1 silica         -0.5500
    317 O208        15.271561     7.458255    22.333665 oc23   1 silica         -0.5500
    318 O209        14.045911     1.275935     9.895361 oc23   1 silica         -0.5500
    319 O210        12.624412    13.501607    10.780753 oc23   1 silica         -0.5500
    320 O211        39.883714    14.265447     9.335463 oc23   1 silica         -0.5500
    321 O212        19.505620     9.402161    15.914662 oc23   1 silica         -0.5500
    322 O213        17.021102    12.525801     8.591494 oc23   1 silica         -0.5500
    323 Si110        2.717345    10.666914    16.393453 sc4    1 silica          1.1000
    324 Si111       12.942697    14.094789    14.309492 sc4    1 silica          1.1000
    325 Si112       17.767247     4.855788    17.069299 sc4    1 silica          1.1000
    326 Si113        4.432691    16.478206    11.130433 sc4    1 silica          1.1000
    327 Si114       16.067093     5.422784    14.749661 sc4    1 silica          1.1000
    328 Si115        4.567221    13.790803    12.449806 sc4    1 silica          1.1000
    329 Si116        0.440443     9.424451    22.733749 sc4    1 silica          1.1000
    330 Si117        7.416871    18.401769    14.422149 sc4    1 silica          1.1000
    331 O214         6.245283     8.505821    12.469920 oc23   1 silica         -0.5500
    332 O215        10.610286    18.559044    14.695387 oc23   1 silica         -0.5500
    333 O216         0.733386    11.900468    21.744271 oc23   1 silica         -0.5500
    334 O217         5.025923    10.666499    12.896136 oc23   1 silica         -0.5500
    335 O218        17.484883    18.861622     7.922029 oc23   1 silica         -0.5500
    336 O219        13.656591    17.078721    21.582180 oc23   1 silica         -0.5500
    337 O220         6.625573    10.894707    11.013409 oc23   1 silica         -0.5500
    338 O221         3.443273     8.055165    11.400153 oc23   1 silica         -0.5500
    339 O222         4.151294     9.910034    16.852131 oc23   1 silica         -0.5500
    340 O223        14.562585    16.273366     6.709010 oc23   1 silica         -0.5500
    341 O224        18.858528    12.432248    12.983556 oc23   1 silica         -0.5500
    342 O225         3.783651     1.051813    17.505266 oc23   1 silica         -0.5500
    343 O226         1.126975    13.274188    18.810687 oc23   1 silica         -0.5500
    344 O227         4.220554     4.819327    21.293786 oc23   1 silica         -0.5500
    345 O228        10.455517     4.147549     5.412489 oc23   1 silica         -0.5500
    346 O229        13.331573     0.536105     7.469868 oc23   1 silica         -0.5500
    347 Si118        5.233665     8.371540    21.783225 sc4    1 silica          1.1000
    348 Si119        4.113156     5.611963    16.979188 sc4    1 silica          1.1000
    349 Si120        4.246235    12.426033     4.327282 sc4    1 silica          1.1000
    350 Si121       17.987124    17.870528    14.549750 sc4    1 silica          1.1000
    351 Si122       15.662010     9.113090     4.200484 sc4    1 silica          1.1000
    352 Si123        3.840394     0.880107     8.808042 sc4    1 silica          1.1000
    353 Si124        3.266453    17.538658    16.757911 sc4    1 silica          1.1000
    354 Si125        0.102331     3.344970     5.626117 sc4    1 silica          1.1000
    355 O230        19.577744    17.938103     6.637642 oc23   1 silica         -0.5500
    356 O231        18.700857    19.314888    14.378946 oc23   1 silica         -0.5500
    357 O232         4.197776    10.926899    23.863975 oc24   1 silica         -0.6750
    358 O233         4.996654     0.287282    23.891832 oc23   1 silica         -0.5500
    359 O234         3.040129    11.962699    15.494253 oc23   1 silica         -0.5500
    360 O235         0.508789     3.333767     9.234834 oc23   1 silica         -0.5500
    361 O236        17.428079     4.819783    18.732308 oc23   1 silica         -0.5500
    362 O237         8.356407    14.847732    13.828316 oc23   1 silica         -0.5500
    363 O238         1.625673     6.721635     6.601404 oc23   1 silica         -0.5500
    364 O239        40.093472     0.580077    16.095003 oc23   1 silica         -0.5500
    365 O240        14.617454    16.493660    19.244623 oc23   1 silica         -0.5500
    366 O241        14.465266     2.958994    19.188696 oc23   1 silica         -0.5500
    367 O242         0.172535     0.255736    22.518043 oc23   1 silica         -0.5500
    368 O243        11.484471     0.822529     5.724231 oc23   1 silica         -0.5500
    369 O244         0.779337    18.696681    10.565260 oc23   1 silica         -0.5500
    370 Si126        1.427268    17.303324    10.877144 sc4    1 silica          1.1000
    371 Si127       10.041444    20.464252     6.115956 sc4    1 silica          1.1000
    372 Si128        4.713040    15.184202    17.898384 sc4    1 silica          1.1000
    373 Si129       18.264692     6.264806    12.975836 sc4    1 silica          1.1000
    374 Si130        2.157885    18.993500     4.420391 sc4    1 silica          1.1000
    375 Si131       11.328735     5.291403     4.587866 sc4    1 silica          1.1000
    376 Si132        7.104553     1.012055    21.293928 sc4    1 silica          1.1000
    377 Si133       18.637523     0.437957    10.548853 sc4    1 silica          1.1000
    378 O245         2.336878     9.086946     6.398282 oc23   1 silica         -0.5500
    379 O246         4.421926     2.967168    23.454685 oc23   1 silica         -0.5500
    380 O247        10.359084     2.546484    21.747294 oc23   1 silica         -0.5500
    381 O248         2.699063     3.641814    10.681647 oc23   1 silica         -0.5500
    382 O249         7.405462    16.869076    14.785049 oc23   1 silica         -0.5500
    383 O250         2.901499     1.039147    22.441129 oc23   1 silica         -0.5500
    384 O251         3.237108     0.527230    15.048844 oc23   1 silica         -0.5500
    385 O252        17.346885     6.345475     4.443409 oc24   1 silica         -0.6750
    386 O253        14.300539    10.657551    14.483647 oc23   1 silica         -0.5500
    387 O254        14.102272    13.257614    13.796706 oc23   1 silica         -0.5500
    388 O255         9.842571     5.284857    21.712872 oc23   1 silica         -0.5500
    389 O256        14.159840     7.438326    16.503537 oc23   1 silica         -0.5500
    390 O257        17.585549    11.033297    16.050195 oc23   1 silica         -0.5500
    391 O258         0.379557    15.687767    14.782759 oc23   1 silica         -0.5500
    392 O259        10.616253     0.467365    23.465261 oc23   1 silica         -0.5500
    393 Si134       19.031479     2.985146     8.738306 sc4    1 silica          1.1000
    394 Si135        8.374589    15.644594    15.178167 sc4    1 silica          1.1000
    395 Si136       16.943294    11.829537    21.932166 sc4    1 silica          1.1000
    396 Si137       14.056031     3.240234    15.067895 sc4    1 silica          1.1000
    397 Si138        2.267799     5.275204     6.519296 sc4    1 silica          1.1000
    398 Si139       11.075478     0.504020    11.854345 sc4    1 silica          1.1000
    399 Si140        1.020371    17.313972    18.538158 sc4    1 silica          1.1000
    400 Si141       40.267712    16.057795    13.319898 sc4    1 silica          1.1000
    401 O260         2.959601     5.167646    15.922901 oc23   1 silica         -0.5500
    402 O261         2.921810     6.392251    13.330190 oc23   1 silica         -0.5500
    403 O262         3.333859    18.950452    13.603782 oc23   1 silica         -0.5500
    404 O263         4.901914    17.379019    12.322087 oc23   1 silica         -0.5500
    405 O264        13.852884    18.182759    14.592881 oc23   1 silica         -0.5500
    406 O265        15.034188    18.761730    12.327069 oc23   1 silica         -0.5500
    407 O266        13.877154     1.935827     5.393957 oc23   1 silica         -0.5500
    408 O267         5.968280    18.981857    14.042723 oc23   1 silica         -0.5500
    409 O268         0.316895    18.549723    19.329635 oc23   1 silica         -0.5500
    410 O269        16.908865     9.946991    12.547755 oc23   1 silica         -0.5500
    411 O270         0.019353     8.895157    13.556779 oc23   1 silica         -0.5500
    412 O271        16.938819     4.181192     5.606356 oc23   1 silica         -0.5500
    413 O272        13.562698     3.366336    16.601297 oc23   1 silica         -0.5500
    414 O273        16.100191     4.726105    21.235050 oc23   1 silica         -0.5500
    415 O274         1.833484    11.026170    17.686031 oc23   1 silica         -0.5500
    416 O275         0.596042    16.406736     9.879100 oc23   1 silica         -0.5500
    417 Si142        4.777463    11.297177    22.460274 sc4    1 silica          1.1000
    418 Si143       15.179643    18.791105    13.884338 sc4    1 silica          1.1000
    419 Si144       16.161027    19.206834    23.219527 sc4    1 silica          1.1000
    420 Si145        7.212395     7.696448     5.418533 sc4    1 silica          1.1000
    421 Si146       13.866471     1.769191    11.396588 sc4    1 silica          1.1000
    422 Si147        7.392884    19.171450    17.159080 sc4    1 silica          1.1000
    423 Si148        6.605415     1.158828    17.238544 sc4    1 silica          1.1000
    424 O276         5.159244    18.310286    19.793411 oc23   1 silica         -0.5500
    425 O277        11.291041     2.566131    17.820172 oc23   1 silica         -0.5500
    426 O278        15.425281     4.033984    14.966712 oc23   1 silica         -0.5500
    427 O279        12.976522    19.587511     9.721409 oc23   1 silica         -0.5500
    428 O280         6.161268     4.395809    19.704764 oc23   1 silica         -0.5500
    429 O281         5.821091     1.607727    18.491320 oc23   1 silica         -0.5500
    430 O282        17.758097     8.141137    22.301819 oc23   1 silica         -0.5500
    431 O283         5.818431     3.740641    13.963779 oc23   1 silica         -0.5500
    432 O284         6.085839     6.577369     4.808929 oc23   1 silica         -0.5500
    433 O285         0.361791    19.882382     8.135997 oc23   1 silica         -0.5500
    434 O286        19.974926     8.107204    23.507733 oc23   1 silica         -0.5500
    435 O287        39.825661    10.005949    21.701612 oc23   1 silica         -0.5500
    436 O288         9.065464    12.984785    19.379566 oc23   1 silica         -0.5500
    437 O289        11.096805    16.619240     4.286276 oc23   1 silica         -0.5500
    438 O290        12.932013     7.644947     6.039986 oc23   1 silica         -0.5500
    439 O291         8.414218    10.777620     6.390138 oc24   1 silica         -0.6750
    440 Si149       16.623921     1.358004    23.958076 sc4    1 silica          1.1000
    441 Si150       12.865333     5.836772    21.275632 sc4    1 silica          1.1000
    442 Si151        2.163573     3.472021     9.061611 sc4    1 silica          1.1000
    443 Si152        8.946213     5.887734     7.243161 sc4    1 silica          1.1000
    444 Si153        6.554538     3.091547    12.735862 sc4    1 silica          1.1000
    445 Si154       10.965741     5.113619    15.205883 sc4    1 silica          1.1000
    446 Si155       14.768474    11.535494     5.843639 sc4    1 silica          1.1000
    447 Si156        5.159485     5.203236     5.214749 sc4    1 silica          1.1000
    448 O292        14.432529    19.062816    19.892682 oc23   1 silica         -0.5500
    449 O293         5.354085     9.981504    21.793990 oc23   1 silica         -0.5500
    450 O294         1.600013    15.126984     5.036109 oc23   1 silica         -0.5500
    451 O295         6.997033    10.174909    14.229556 oc23   1 silica         -0.5500
    452 O296        17.387885     3.365218    16.474405 oc23   1 silica         -0.5500
    453 O297        10.298693    18.903468     5.700812 oc23   1 silica         -0.5500
    454 O298        17.894965     1.041932    17.069182 oc23   1 silica         -0.5500
    455 O299        10.819519    19.835481    12.353533 oc23   1 silica         -0.5500
    456 O300         2.992002    16.565544    23.665528 oc23   1 silica         -0.5500
    457 O301        18.843492    10.947863     5.989842 oc23   1 silica         -0.5500
    458 O302        13.320568     8.738835    11.708566 oc23   1 silica         -0.5500
    459 O303         2.020226     7.732742     4.091393 oc24   1 silica         -0.6750
    460 O304         7.094676     9.876184     8.806932 oc23   1 silica         -0.5500
    461 O305        10.673419     0.336182    10.276746 oc23   1 silica         -0.5500
    462 O306        10.160776     1.525633    12.734588 oc23   1 silica         -0.5500
    463 O307        11.483907     4.403226     9.519524 oc23   1 silica         -0.5500
    464 Si157       12.345595    11.368606    20.740677 sc4    1 silica          1.1000
    465 Si158       12.433118     5.392705    24.160938 sc4    1 silica          1.1000
    466 Si159        5.536066     3.382549    15.533749 sc4    1 silica          1.1000
    467 Si160        7.427031    14.020004    12.814784 sc4    1 silica          1.1000
    468 Si161       12.600102    17.967726     9.691736 sc4    1 silica          1.1000
    469 Si162       17.602159    10.379956    11.220591 sc4    1 silica          1.1000
    470 Si163        9.183021     7.471679    14.632755 sc4    1 silica          1.1000
    471 Si164       11.466854     8.062043     5.584921 sc4    1 silica          1.1000
    472 O308         4.762022    20.033070    11.919668 oc23   1 silica         -0.5500
    473 O309         4.381007    16.476631    17.105632 oc23   1 silica         -0.5500
    474 O310        11.184651    13.256538    18.151909 oc23   1 silica         -0.5500
    475 O311         7.736689    12.490708    13.120387 oc23   1 silica         -0.5500
    476 O312         9.910340     3.722788    11.623129 oc23   1 silica         -0.5500
    477 O313        16.333130    19.630848    21.663887 oc23   1 silica         -0.5500
    478 O314        17.671742     7.653358    12.621388 oc23   1 silica         -0.5500
    479 O315        17.699640     1.283870    22.731009 oc23   1 silica         -0.5500
    480 O316         9.820922     6.162469    10.650296 oc23   1 silica         -0.5500
    481 O317        40.177205    11.134557    19.311858 oc23   1 silica         -0.5500
    482 O318         5.324171     4.739571    16.475089 oc23   1 silica         -0.5500
    483 O319         7.515240    14.470411    11.331572 oc23   1 silica         -0.5500
    484 O320        18.620550     6.000926    23.615904 oc23   1 silica         -0.5500
    485 O321        13.734198     3.421114    11.426476 oc23   1 silica         -0.5500
    486 O322         7.604214     1.990741    20.175079 oc23   1 silica         -0.5500
    487 O323         4.963273     8.707388    14.822113 oc23   1 silica         -0.5500
    488 Si165        4.946019    19.594719    20.659041 sc4    1 silica          1.1000
    489 Si166        9.501105     9.017921    19.141504 sc4    1 silica          1.1000
    490 Si167       13.915332     1.902544    20.352753 sc4    1 silica          1.1000
    491 Si168        8.108633    13.527999     8.284745 sc4    1 silica          1.1000
    492 Si169        7.336645    16.361161     3.863623 sc4    1 silica          1.1000
    493 Si170       15.869792    15.598108     6.243297 sc4    1 silica          1.1000
    494 Si171       18.525931     7.567884    23.587904 sc4    1 silica          1.1000
    495 Si172       16.227464    12.793866     9.855938 sc4    1 silica          1.1000
    496 O324         1.055344     0.155004    18.156442 oc23   1 silica         -0.5500
    497 O325        11.994817    11.676901     3.863411 oc24   1 silica         -0.6750
    498 O326         9.893852    18.691503    23.948964 oc24   1 silica         -0.6750
    499 O327         4.854464    12.876150     5.741111 oc23   1 silica         -0.5500
    500 O328        13.307828    12.593999    21.232759 oc23   1 silica         -0.5500
    501 O329         8.800152     8.493806    20.527096 oc23   1 silica         -0.5500
    502 O330         4.542065     9.506694     8.073082 oc23   1 silica         -0.5500
    503 O331        10.452292     4.797244    16.707627 oc23   1 silica         -0.5500
    504 O332         8.522182     6.992435    22.677137 oc23   1 silica         -0.5500
    505 O333        18.072229    15.487567    23.671075 oc23   1 silica         -0.5500
    506 O334        15.737681    12.822455    21.660205 oc23   1 silica         -0.5500
    507 O335         3.561762     5.301430     5.406704 oc23   1 silica         -0.5500
    508 O336        10.594886    13.862107     4.657414 oc23   1 silica         -0.5500
    509 O337         5.942560    10.912979     6.815669 oc23   1 silica         -0.5500
    510 O338         7.609818     9.042946     4.529294 oc23   1 silica         -0.5500
    511 O339         4.379475     5.564150    11.090300 oc23   1 silica         -0.5500
    512 Si173        5.591499    12.471111     7.027196 sc4    1 silica          1.1000
    513 Si174        9.692923    11.456524    23.588424 sc4    1 silica          1.1000
    514 Si175        2.767839     9.402492    10.714651 sc4    1 silica          1.1000
    515 Si176        5.171217    11.271282    11.448431 sc4    1 silica          1.1000
    516 Si177        2.198312    12.683699    21.858085 sc4    1 silica          1.1000
    517 Si178        2.526072     7.657833    21.437865 sc4    1 silica          1.1000
    518 Si179        7.326123    12.770084    21.842339 sc4    1 silica          1.1000
    519 Si180       13.499686    16.858137    15.441608 sc4    1 silica          1.1000
    520 O340        13.721498     9.821328    23.346019 oc23   1 silica         -0.5500
    521 O341         7.996840     1.363676    17.814931 oc23   1 silica         -0.5500
    522 O342         7.678675    12.456652     9.412347 oc23   1 silica         -0.5500
    523 O343         3.608225    12.004959    21.591411 oc23   1 silica         -0.5500
    524 O344         9.990889    10.261212    12.904871 oc23   1 silica         -0.5500
    525 O345         6.409526     7.640266    21.076217 oc23   1 silica         -0.5500
    526 O346        18.284849    17.175921    18.752021 oc23   1 silica         -0.5500
    527 O347        19.239906     5.257926    16.611779 oc23   1 silica         -0.5500
    528 O348         7.955920     4.762773     7.335917 oc23   1 silica         -0.5500
    529 O349         6.961274    13.243071     7.154183 oc23   1 silica         -0.5500
    530 O350        15.090548     0.788256    20.806945 oc23   1 silica         -0.5500
    531 O351        18.834219     1.114549    12.080862 oc23   1 silica         -0.5500
    532 O352        11.031737    17.624753    10.046744 oc23   1 silica         -0.5500
    533 O353        10.083814    19.104994    19.611962 oc23   1 silica         -0.5500
    534 O354         9.798588    10.083758    22.816093 oc23   1 silica         -0.5500
    535 O355        11.146310     9.149219    19.493780 oc23   1 silica         -0.5500
    536 Si181        8.040541    11.835006    19.147949 sc4    1 silica          1.1000
    537 Si182       13.235625    10.295724    11.195850 sc4    1 silica          1.1000
    538 Si183        7.951889     7.311876    21.124234 sc4    1 silica          1.1000
    539 Si184        8.694205     1.027708     3.599026 sc4    1 silica          1.1000
    540 Si185        9.998509     6.438903    22.818878 sc4    1 silica          1.1000
    541 Si186       12.539469    13.544903    17.278300 sc4    1 silica          1.1000
    542 Si187       12.554264     8.267297    19.919477 sc4    1 silica          1.1000
    543 Si188        6.210532    17.183585    19.326401 sc4    1 silica          1.1000
    544 O356        11.758814    14.245560    13.159742 oc23   1 silica         -0.5500
    545 O357         9.656801    13.297886     7.839519 oc23   1 silica         -0.5500
    546 O358         3.402088     1.514149    12.181904 oc23   1 silica         -0.5500
    547 O359         3.769271    16.739435     5.075015 oc23   1 silica         -0.5500
    548 O360         1.042560    16.930269    12.427048 oc23   1 silica         -0.5500
    549 O361         1.549515     9.921469    11.676672 oc23   1 silica         -0.5500
    550 O362        18.472394    13.231886     6.627562 oc23   1 silica         -0.5500
    551 O363        11.790421     5.126007    12.059261 oc23   1 silica         -0.5500
    552 O364        13.114518     7.476112    18.640403 oc23   1 silica         -0.5500
    553 O365         4.872726     1.137896    10.047953 oc23   1 silica         -0.5500
    554 O366         6.908139    17.788658    17.945057 oc23   1 silica         -0.5500
    555 O367        18.362576    15.826481    10.985575 oc23   1 silica         -0.5500
    556 O368         3.047999    17.191664    10.545430 oc23   1 silica         -0.5500
    557 O369         9.120171    11.329494    14.979696 oc23   1 silica         -0.5500
    558 O370        13.201397     1.354010    24.060911 oc24   1 silica         -0.6750
    559 O371        10.802063     5.640924    24.061408 oc23   1 silica         -0.5500
    560 Si189       10.089459    19.406785    18.112460 sc4    1 silica          1.1000
    561 Si190       10.180692    15.660462    21.640090 sc4    1 silica          1.1000
    562 Si191        4.835677    17.918506     4.993024 sc4    1 silica          1.1000
    563 Si192       14.271634    13.204913    22.289519 sc4    1 silica          1.1000
    564 Si193        1.100331     0.681051     4.784165 sc4    1 silica          1.1000
    565 Si194        0.106258     6.579607    10.714202 sc4    1 silica          1.1000
    566 Si195       10.461363    13.307913    19.564770 sc4    1 silica          1.1000
    567 Si196        9.196769     7.394491     9.814490 sc4    1 silica          1.1000
    568 O372         5.566866     3.885227     4.296332 oc23   1 silica         -0.5500
    569 O373        10.544008    14.750451    20.286792 oc23   1 silica         -0.5500
    570 O374         2.694789     0.386232     4.734919 oc24   1 silica         -0.6750
    571 O375         1.757482     8.943136    21.891939 oc23   1 silica         -0.5500
    572 O376         6.438190     2.164622    15.968063 oc23   1 silica         -0.5500
    573 O377        40.079402    14.676619    12.510100 oc23   1 silica         -0.5500
    574 O378        10.803232     7.730753    22.332391 oc23   1 silica         -0.5500
    575 O379         4.249944     0.064390    19.923538 oc23   1 silica         -0.5500
    576 O380        11.010087    12.071002    20.414251 oc23   1 silica         -0.5500
    577 O381         8.579469     7.742934    13.203652 oc23   1 silica         -0.5500
    578 O382        15.415606    15.007494     4.884522 oc23   1 silica         -0.5500
    579 O383        12.553983     1.089234    11.997101 oc23   1 silica         -0.5500
    580 O384         3.805635    18.896135     4.321239 oc23   1 silica         -0.5500
    581 O385         6.676047     2.794335     8.164427 oc23   1 silica         -0.5500
    582 O386         7.039283     0.246269     7.125428 oc23   1 silica         -0.5500
    583 O387         2.630116    13.604359     6.868409 oc23   1 silica         -0.5500
    584 Si197        6.396585     2.532116     4.594287 sc4    1 silica          1.1000
    585 Si198        9.294210     2.981727     5.412253 sc4    1 silica          1.1000
    586 Si199       11.343451    13.973020    11.657337 sc4    1 silica          1.1000
    587 Si200       10.734455     4.894733    10.881441 sc4    1 silica          1.1000
    588 Si201       11.127887     3.752458     8.214454 sc4    1 silica          1.1000
    589 Si202       11.041614     9.234444    22.762881 sc4    1 silica          1.1000
    590 Si203       11.564456    15.196631     4.942952 sc4    1 silica          1.1000
    591 O388        10.394158     5.009127     7.392080 oc23   1 silica         -0.5500
    592 O389        12.026020    15.406526     6.543070 oc23   1 silica         -0.5500
    593 O390        13.526334    15.555183    14.461055 oc23   1 silica         -0.5500
    594 O391         3.964229    15.057213    11.617439 oc23   1 silica         -0.5500
    595 O392         8.931901     0.102656     4.904848 oc23   1 silica         -0.5500
    596 O393        12.101651     4.511944    21.061367 oc23   1 silica         -0.5500
    597 O394         8.689689    15.551869    22.306446 oc23   1 silica         -0.5500
    598 O395        15.285147     6.215792     6.211922 oc23   1 silica         -0.5500
    599 O396         5.490953     1.251225     5.373441 oc23   1 silica         -0.5500
    600 O397        10.688376     8.604015     6.880875 oc23   1 silica         -0.5500
    601 O398         2.911662    15.508573     2.893860 oc24   1 silica         -0.6750
    602 O399        12.086734    16.968056    16.055294 oc23   1 silica         -0.5500
    603 O400        11.447341    15.519884    22.588678 oc23   1 silica         -0.5500
    604 O401         7.100763    12.415757    17.948574 oc23   1 silica         -0.5500
    605 Si204        4.771778    18.836473    12.971115 sc4    1 silica          1.1000
    606 Si205        0.480500    12.919074     9.586591 sc4    1 silica          1.1000
    607 Si206       10.688053    17.477876    15.853966 sc4    1 silica          1.1000
    608 Si207        7.698954     1.542550     7.763503 sc4    1 silica          1.1000
    609 Si208       14.496752    15.636805    17.947819 sc4    1 silica          1.1000
    610 Si209       10.080429    18.672402    13.199615 sc4    1 silica          1.1000
    611 Si210        7.661905     7.417030    17.154146 sc4    1 silica          1.1000
    612 Si211        4.837370     0.888911    11.656865 sc4    1 silica          1.1000
    613 O402        12.502662     4.488410    18.406119 oc23   1 silica         -0.5500
    614 O403        10.340338     8.479843     9.460634 oc23   1 silica         -0.5500
    615 O404         7.113382     6.081511    17.813821 oc23   1 silica         -0.5500
    616 O405         6.799249    12.449939    15.439058 oc23   1 silica         -0.5500
    617 O406        15.100384     1.283915    12.331153 oc23   1 silica         -0.5500
    618 O407        10.027455    20.698924     7.690672 oc23   1 silica         -0.5500
    619 O408        13.669975    12.448738    17.603050 oc23   1 silica         -0.5500
    620 O409         9.087112    10.670933    10.476070 oc23   1 silica         -0.5500
    621 O410        14.353633     1.816296    14.684386 oc23   1 silica         -0.5500
    622 O411        15.369688    20.368048     8.759188 oc23   1 silica         -0.5500
    623 O412         3.968595     7.923619    21.127800 oc23   1 silica         -0.5500
    624 O413        18.956131     3.184653     4.666763 oc23   1 silica         -0.5500
    625 O414        16.902576    11.902085    10.922849 oc23   1 silica         -0.5500
    626 O415         7.120598    16.832905    20.585384 oc23   1 silica         -0.5500
    627 O416        17.707984    12.742366    23.189593 oc23   1 silica         -0.5500
    628 O417         1.019778     4.602306     5.743990 oc23   1 silica         -0.5500
    629 O418        19.278366    13.762712    25.120103 oc24   1 silica         -0.6750
    630 Si212       20.409034     3.172965    19.881611 sc4    1 silica          1.1000
    631 O419         5.024028    18.145636    24.149016 oc23   1 silica         -0.5500
    632 O420         5.800450    15.817656    22.873459 oc23   1 silica         -0.5500
    633 O421        14.099570    18.200534    26.056909 oc24   1 silica         -0.6750
    634 O422        14.661518     1.642741     2.790552 oc24   1 silica         -0.6750
    635 O423        13.451510    10.917536    25.639334 oc24   1 silica         -0.6750
    636 O424         7.050128    11.881658     4.411798 oc23   1 silica         -0.5500
    637 O425         9.724530    18.506716     3.036593 oc24   1 silica         -0.6750
    638 H1           5.197442     6.994482    23.452787 hoy    1 silica          0.4000
    639 H2          14.421380    14.418969     2.228758 hoy    1 silica          0.4000
    640 O426        17.061578     3.971666     3.072005 oc24   1 silica         -0.6750
    641 H3           1.549694    12.984826    23.835158 hoy    1 silica          0.4000
    642 H4           1.764831    10.143417    24.264765 hoy    1 silica          0.4000
    643 O427        19.256234     9.792574     3.654221 oc24   1 silica         -0.6750
    644 O428        15.758362     9.411773     2.605159 oc24   1 silica         -0.6750
    645 O429        14.677643     7.773469     4.296994 oc23   1 silica         -0.5500
    646 H5           4.091398    11.733474    24.337454 hoy    1 silica          0.4000
    647 O430         1.323482    20.209280     3.875404 oc23   1 silica         -0.5500
    648 O431        10.918209     5.027275     3.080244 oc24   1 silica         -0.6750
    649 H6          18.218159     6.692589     4.520463 hoy    1 silica          0.4000
    650 O432        13.093515     6.279722    25.395063 oc24   1 silica         -0.6750
    651 O433         7.032228    14.730604     4.254145 oc23   1 silica         -0.5500
    652 O434         7.689359    16.289856     2.281754 oc24   1 silica         -0.6750
    653 O435        17.974304     8.047501    24.970311 oc24   1 silica         -0.6750
    654 H7          11.761948    11.526496     2.983820 hoy    1 silica          0.4000
    655 H8           9.852475    18.765963    24.902251 hoy    1 silica          0.4000
    656 O436         8.866631    10.981340    24.946467 oc24   1 silica         -0.6750
    657 O437        11.363930    11.753508    23.873796 oc23   1 silica         -0.5500
    658 O438         2.519138     6.903812    22.827802 oc24   1 silica         -0.6750
    659 O439         9.321745     0.371425     2.246414 oc24   1 silica         -0.6750
    660 O440         7.268916     1.778733     3.525913 oc23   1 silica         -0.5500
    661 O441         0.515255     0.657356     3.299726 oc24   1 silica         -0.6750
    662 H9           3.097094     1.170940     4.415018 hoy    1 silica          0.4000
    663 O442        11.330912     9.074724    24.399331 oc24   1 silica         -0.6750
    664 H10          3.829630    15.322513     2.941620 hoy    1 silica          0.4000
    665 H11         19.062832    14.495689    25.658768 hoy    1 silica          0.4000
    666 H12         15.035116    18.223399    26.055025 hoy    1 silica          0.4000
    667 H13         15.482314     1.816570     2.361346 hoy    1 silica          0.4000
    668 H14         13.190229    11.621582    26.197111 hoy    1 silica          0.4000
    669 H15          9.489152    19.415912     3.105475 hoy    1 silica          0.4000
    670 H16         16.013194    10.298989     2.464078 hoy    1 silica          0.4000
    671 H17         10.604851     5.835762     2.723030 hoy    1 silica          0.4000
    672 H18         13.285305     5.727730    26.129778 hoy    1 silica          0.4000
    673 H19          8.362511    16.912702     2.090519 hoy    1 silica          0.4000
    674 H20         17.148667     8.475861    24.839504 hoy    1 silica          0.4000
    675 H21          3.245727     7.207176    23.347244 hoy    1 silica          0.4000
    676 H22         10.579609     8.743414    24.851256 hoy    1 silica          0.4000
    677 Si213        4.688407    16.591273    23.932366 sc4    1 silica          1.1000
    678 O443         5.010442    15.842141    25.290338 oc24   1 silica         -0.6750
    679 H23          5.933295    15.890975    25.433801 hoy    1 silica          0.4000
    680 Si214        6.738535    13.249701     3.541352 sc4    1 silica          1.1000
    681 O444         7.340193    13.205161     2.061965 oc24   1 silica         -0.6750
    682 H24          7.454886    12.315996     1.792440 hoy    1 silica          0.4000
    683 O445         5.202098    13.110614     3.352725 oc23   1 silica         -0.5500
    684 Si215        9.586734     1.620894    22.900727 sc4    1 silica          1.1000
    685 O446         9.249098     2.557646    24.131146 oc24   1 silica         -0.6750
    686 H25          9.072391     3.424140    23.823230 hoy    1 silica          0.4000
    687 O447         2.743618    19.359593    24.373527 oc24   1 silica         -0.6750
    688 H26          2.724223    19.977417    25.068161 hoy    1 silica          0.4000
    689 O448        21.638152     3.357532    20.991417 oc23   1 silica         -0.5500
    690 O449        19.348474     2.447450    21.022367 oc23   1 silica         -0.5500
    691 O450        20.164726     4.805820    19.583750 oc23   1 silica         -0.5500
    692 Si216       21.411381     4.296539    22.300213 sc4    1 silica          1.1000
    693 O451         2.436121     4.392536    23.094666 oc23   1 silica         -0.5500
    694 O452        20.855562     5.642042    21.766794 oc23   1 silica         -0.5500
    695 Si217       20.555820     6.253289    20.304027 sc4    1 silica          1.1000
    696 O453        19.302595     7.379327    20.234335 oc23   1 silica         -0.5500
    697 Si218       19.189513     1.442989    22.356353 sc4    1 silica          1.1000
    698 Si219        3.958117     4.439438    22.935926 sc4    1 silica          1.1000
    699 O454         4.452929     5.655549    23.949010 oc24   1 silica         -0.6750
    700 O455        19.974643     1.891735    23.668030 oc24   1 silica         -0.6750
    701 H27         13.809908     0.919058    24.625923 hoy    1 silica          0.4000
    702 O456        17.407277     1.641796    25.292322 oc24   1 silica         -0.6750
    703 H28         17.108033     2.450913    25.654239 hoy    1 silica          0.4000
    704 H29         17.313474     4.325988    24.456602 hoy    1 silica          0.4000
    705 H30          9.255982    10.396131     6.552498 hoy    1 silica          0.4000
    706 O457         4.198946    10.786984     4.166276 oc24   1 silica         -0.6750
    707 H31          5.072383    10.457877     4.111653 hoy    1 silica          0.4000
    708 H32         12.434734     9.520827     4.341145 hoy    1 silica          0.4000
    709 H33         17.215524     4.895449     3.212033 hoy    1 silica          0.4000
    710 H34          4.253589     5.368426    24.832176 hoy    1 silica          0.4000
    711 H35          2.176167     8.556218     3.658156 hoy    1 silica          0.4000
    712 H36         20.139888    10.140029     3.669193 hoy    1 silica          0.4000
    713 H37          8.400886    11.730983    25.308631 hoy    1 silica          0.4000
    714 H38         19.367686     1.812359    24.412037 hoy    1 silica          0.4000
    715 Si1         15.764732    40.802262    20.525987 sc4    1 silica          1.1000
    716 Si2         14.268368    27.799248    17.941492 sc4    1 silica          1.1000
    717 Si3         18.590032    34.838750    23.717772 sc4    1 silica          1.1000
    718 Si4         17.191391    35.346085    18.524937 sc4    1 silica          1.1000
    719 Si5          8.406317    22.880194    19.175712 sc4    1 silica          1.1000
    720 Si6         17.746888    22.817092    15.735738 sc4    1 silica          1.1000
    721 Si7          0.231023    20.151317    19.258080 sc4    1 silica          1.1000
    722 Si8         13.826720    23.317507    23.319956 sc4    1 silica          1.1000
    723 O1           8.572535    40.464054    17.976479 oc23   1 silica         -0.5500
    724 O2          14.250026    26.716672    12.447752 oc23   1 silica         -0.5500
    725 O3          12.520158    33.192988     8.466809 oc23   1 silica         -0.5500
    726 O4           8.059126    23.592078    13.202118 oc23   1 silica         -0.5500
    727 O5          16.609125    38.912383    14.048318 oc23   1 silica         -0.5500
    728 O6           2.037005    39.730707    22.120770 oc23   1 silica         -0.5500
    729 O7           3.805905    25.988545    18.557162 oc23   1 silica         -0.5500
    730 O8           8.191077    28.694427    10.711629 oc23   1 silica         -0.5500
    731 O9          17.933385    38.435915    16.236957 oc23   1 silica         -0.5500
    732 O10         16.423677    34.522788    11.416584 oc23   1 silica         -0.5500
    733 O11          8.602730    23.049071     4.102016 oc23   1 silica         -0.5500
    734 O12         11.896368    30.878390    21.783319 oc23   1 silica         -0.5500
    735 O13         14.130895    22.931777     2.753795 oc24   1 silica         -0.6750
    736 O14         19.109569    23.089383    14.718144 oc23   1 silica         -0.5500
    737 O15          0.068278    21.307436    13.714503 oc23   1 silica         -0.5500
    738 O16          2.311774    33.930395     9.541052 oc23   1 silica         -0.5500
    739 Si9          7.341926    28.342628    12.047197 sc4    1 silica          1.1000
    740 Si10        13.331855    25.400667    12.388307 sc4    1 silica          1.1000
    741 Si11        15.071197    28.282717     4.876732 sc4    1 silica          1.1000
    742 Si12        14.646198    28.227904    11.969079 sc4    1 silica          1.1000
    743 Si13        17.796597    21.587225    18.796003 sc4    1 silica          1.1000
    744 Si14        17.776077    27.156803     5.697719 sc4    1 silica          1.1000
    745 Si15         2.416141    25.737218    14.476235 sc4    1 silica          1.1000
    746 Si16        11.308699    29.670275     8.268912 sc4    1 silica          1.1000
    747 O17         13.511257    23.472421    21.759900 oc23   1 silica         -0.5500
    748 O18         18.532503    25.011828     8.322277 oc23   1 silica         -0.5500
    749 O19         10.204477    37.939852    12.540201 oc23   1 silica         -0.5500
    750 O20         18.277955    25.214555    21.082449 oc23   1 silica         -0.5500
    751 O21         15.558723    29.360654     8.410920 oc23   1 silica         -0.5500
    752 O22         17.608407    24.450425    23.426710 oc24   1 silica         -0.6750
    753 O23         20.090064    22.977434    18.449345 oc23   1 silica         -0.5500
    754 O24         17.243075    22.991439    19.731842 oc23   1 silica         -0.5500
    755 O25          2.863446    24.438450    13.613249 oc23   1 silica         -0.5500
    756 O26         10.736753    31.238516     8.339855 oc23   1 silica         -0.5500
    757 O27         10.000122    23.299319     8.422136 oc23   1 silica         -0.5500
    758 O28         12.833121    29.658715     8.462701 oc23   1 silica         -0.5500
    759 O29          8.585234    23.267541     6.674069 oc23   1 silica         -0.5500
    760 O30         16.686006    20.433759    19.126678 oc23   1 silica         -0.5500
    761 O31          0.066107    37.825539    17.416595 oc23   1 silica         -0.5500
    762 Si17        17.524271    34.005884    14.050963 sc4    1 silica          1.1000
    763 Si18         1.493376    28.704660     6.013474 sc4    1 silica          1.1000
    764 Si19        13.843854    38.372898    20.302231 sc4    1 silica          1.1000
    765 Si20        14.747187    32.601753    13.612045 sc4    1 silica          1.1000
    766 Si21         0.473630    32.596575    18.288504 sc4    1 silica          1.1000
    767 Si22         3.280732    33.366421     8.474429 sc4    1 silica          1.1000
    768 Si23         4.401084    40.315891    23.704031 sc4    1 silica          1.1000
    769 Si24        11.234036    21.945861    18.851812 sc4    1 silica          1.1000
    770 O32          3.316217    35.212508    18.431285 oc23   1 silica         -0.5500
    771 O33         14.269255    31.377810     7.020775 oc23   1 silica         -0.5500
    772 O34         19.917396    26.882274     9.376404 oc23   1 silica         -0.5500
    773 O35          2.407990    37.639884    15.840864 oc23   1 silica         -0.5500
    774 O36         17.277705    27.299992     8.894930 oc23   1 silica         -0.5500
    775 O37         16.821866    37.844557     6.339736 oc23   1 silica         -0.5500
    776 O38          5.634313    39.880277     5.699372 oc23   1 silica         -0.5500
    777 O39          0.292282    41.180702     5.800956 oc23   1 silica         -0.5500
    778 O40          0.872702    25.694626    14.803440 oc23   1 silica         -0.5500
    779 O41         14.692520    37.180029    16.745470 oc23   1 silica         -0.5500
    780 O42         40.207441    21.039619    10.432183 oc23   1 silica         -0.5500
    781 O43         14.701187    26.232331    17.985096 oc23   1 silica         -0.5500
    782 O44         18.934360    27.101201    14.476376 oc23   1 silica         -0.5500
    783 O45          7.907986    35.223695    16.459013 oc23   1 silica         -0.5500
    784 O46          5.895795    22.280632    12.422185 oc23   1 silica         -0.5500
    785 O47         10.336670    24.887615    19.468426 oc23   1 silica         -0.5500
    786 Si25        13.708235    38.874016    24.574123 sc4    1 silica          1.1000
    787 Si26        16.245244    29.958309    18.310601 sc4    1 silica          1.1000
    788 Si27         0.520004    39.716082     6.500528 sc4    1 silica          1.1000
    789 Si28        14.776335    29.901216    21.974825 sc4    1 silica          1.1000
    790 Si29        13.944802    24.855672    17.992415 sc4    1 silica          1.1000
    791 Si30         1.697293    35.353997    18.431238 sc4    1 silica          1.1000
    792 Si31        14.291468    23.525911     4.259457 sc4    1 silica          1.1000
    793 Si32        14.256193    34.697093     4.340432 sc4    1 silica          1.1000
    794 O48         14.229667    33.488481     5.376959 oc23   1 silica         -0.5500
    795 O49          8.907873    28.775882    18.166404 oc23   1 silica         -0.5500
    796 O50         11.605698    28.899514     4.182471 oc24   1 silica         -0.6750
    797 O51         40.074202    24.693796    22.966451 oc23   1 silica         -0.5500
    798 O52         13.171604    26.603189    22.750274 oc23   1 silica         -0.5500
    799 O53         40.105364    35.112946    22.688302 oc23   1 silica         -0.5500
    800 O54          5.803675    36.739732    10.313322 oc23   1 silica         -0.5500
    801 O55         16.164574    31.028291    22.149500 oc23   1 silica         -0.5500
    802 O56          5.398230    34.816791    16.928974 oc23   1 silica         -0.5500
    803 O57          4.109366    20.567169     7.893535 oc23   1 silica         -0.5500
    804 O58          8.632483    39.453279    13.452999 oc23   1 silica         -0.5500
    805 O59          1.262578    20.625796    20.388212 oc23   1 silica         -0.5500
    806 O60          8.816358    33.480899    23.011187 oc23   1 silica         -0.5500
    807 O61         10.330219    38.053374    21.232311 oc23   1 silica         -0.5500
    808 O62          1.336951    36.758170    19.212328 oc23   1 silica         -0.5500
    809 O63         14.267521    32.083562    12.092430 oc23   1 silica         -0.5500
    810 Si33        10.005282    37.444447    11.055785 sc4    1 silica          1.1000
    811 Si34        13.249735    31.979694    23.920610 sc4    1 silica          1.1000
    812 Si35        16.854925    29.638912    13.207406 sc4    1 silica          1.1000
    813 Si36         7.793815    31.612399    10.080180 sc4    1 silica          1.1000
    814 Si37         7.338620    31.518557     4.413829 sc4    1 silica          1.1000
    815 Si38        13.341370    34.247474     9.343744 sc4    1 silica          1.1000
    816 Si39        14.286470    30.384853     8.337808 sc4    1 silica          1.1000
    817 Si40         7.400544    36.290526    10.453454 sc4    1 silica          1.1000
    818 O64         12.149504    23.644531     7.050780 oc23   1 silica         -0.5500
    819 O65         13.704324    29.866497    20.680760 oc23   1 silica         -0.5500
    820 O66          2.898217    31.813178     8.070758 oc23   1 silica         -0.5500
    821 O67          7.839410    35.617836     9.113936 oc23   1 silica         -0.5500
    822 O68          2.606701    35.192287    15.002572 oc23   1 silica         -0.5500
    823 O69         19.062078    31.081406    11.542154 oc23   1 silica         -0.5500
    824 O70          1.686766    34.911587    21.168027 oc23   1 silica         -0.5500
    825 O71         18.291299    37.877454    21.726589 oc23   1 silica         -0.5500
    826 O72         16.967967    26.360769    13.409584 oc23   1 silica         -0.5500
    827 O73         14.786010    33.531984     9.635922 oc23   1 silica         -0.5500
    828 O74         17.842434    33.961220    18.259183 oc23   1 silica         -0.5500
    829 O75         17.149263    35.391246    13.331890 oc23   1 silica         -0.5500
    830 O76         15.952398    35.718143     7.277274 oc23   1 silica         -0.5500
    831 O77         13.445705    35.685785     8.627264 oc23   1 silica         -0.5500
    832 O78         13.237761    30.637173    16.832725 oc23   1 silica         -0.5500
    833 Si41        39.876175    32.026346    21.057589 sc4    1 silica          1.1000
    834 Si42         2.593361    33.690378    14.555038 sc4    1 silica          1.1000
    835 Si43         0.500073    35.878900    21.433544 sc4    1 silica          1.1000
    836 Si44        14.938762    38.377953    11.329636 sc4    1 silica          1.1000
    837 Si45        13.103835    30.613930    15.219080 sc4    1 silica          1.1000
    838 Si46        18.010588    38.311288     7.321280 sc4    1 silica          1.1000
    839 Si47        40.225100    26.721186    15.508961 sc4    1 silica          1.1000
    840 Si48        18.315932    33.315793    16.904989 sc4    1 silica          1.1000
    841 O79          8.837685    31.178523    18.954270 oc23   1 silica         -0.5500
    842 O80         16.279672    32.873961    13.743210 oc23   1 silica         -0.5500
    843 O81          6.066931    26.192680     9.553994 oc23   1 silica         -0.5500
    844 O82         13.149593    35.559127    17.930821 oc23   1 silica         -0.5500
    845 O83          0.738651    23.415081    12.668415 oc23   1 silica         -0.5500
    846 O84         15.690230    35.282238    18.179200 oc23   1 silica         -0.5500
    847 O85          3.221034    33.129928     4.822716 oc23   1 silica         -0.5500
    848 O86         12.766803    35.292014     4.335379 oc23   1 silica         -0.5500
    849 O87          4.138231    27.985983    16.989552 oc23   1 silica         -0.5500
    850 O88          5.258982    25.813453     7.118370 oc23   1 silica         -0.5500
    851 O89         12.281293    34.487654    15.689183 oc23   1 silica         -0.5500
    852 O90         10.432014    33.370523    11.679764 oc23   1 silica         -0.5500
    853 O91         17.856061    34.159556    15.603912 oc23   1 silica         -0.5500
    854 O92         12.355473    38.596465    19.883287 oc23   1 silica         -0.5500
    855 O93         16.882176    29.764078    16.916675 oc23   1 silica         -0.5500
    856 O94          1.292125    37.272298    21.709946 oc23   1 silica         -0.5500
    857 Si49         7.217394    36.590535    21.834028 sc4    1 silica          1.1000
    858 Si50         2.969833    22.339051    16.115376 sc4    1 silica          1.1000
    859 Si51        10.678377    24.784988    20.950268 sc4    1 silica          1.1000
    860 Si52        15.358641    21.760949    14.054032 sc4    1 silica          1.1000
    861 Si53        18.566892    37.709654    17.401864 sc4    1 silica          1.1000
    862 Si54        11.125912    39.215252    20.562249 sc4    1 silica          1.1000
    863 Si55        13.120163    36.587386    22.744914 sc4    1 silica          1.1000
    864 Si56        10.167590    38.485012     4.432148 sc4    1 silica          1.1000
    865 O95          2.515207    38.616518    18.031344 oc23   1 silica         -0.5500
    866 O96          5.620364    36.467856    18.996056 oc23   1 silica         -0.5500
    867 O97         16.715274    22.515591    14.531312 oc23   1 silica         -0.5500
    868 O98          8.669895    27.686884     8.382418 oc23   1 silica         -0.5500
    869 O99         15.370776    23.151282    23.698649 oc23   1 silica         -0.5500
    870 O100         6.882418    26.879209    11.912042 oc23   1 silica         -0.5500
    871 O101        19.394030    26.591175    11.977767 oc23   1 silica         -0.5500
    872 O102        39.681534    36.264549    20.340099 oc23   1 silica         -0.5500
    873 O103        17.704760    39.039537    23.994597 oc23   1 silica         -0.5500
    874 O104        12.400222    26.427103    15.125852 oc23   1 silica         -0.5500
    875 O105        11.974458    31.411287    10.830589 oc23   1 silica         -0.5500
    876 O106         1.204658    33.409512    13.739173 oc23   1 silica         -0.5500
    877 O107        13.196156    37.354707    24.120027 oc23   1 silica         -0.5500
    878 O108         8.592612    37.951742     4.306059 oc23   1 silica         -0.5500
    879 O109         0.808670    33.322960     5.900251 oc23   1 silica         -0.5500
    880 O110         4.197696    29.079828    23.431857 oc24   1 silica         -0.6750
    881 Si57         2.249843    34.048891     5.751829 sc4    1 silica          1.1000
    882 Si58        19.101708    36.619495     9.728173 sc4    1 silica          1.1000
    883 Si59        17.786680    30.524352    16.018702 sc4    1 silica          1.1000
    884 Si60        11.053910    32.764622     7.929560 sc4    1 silica          1.1000
    885 Si61        10.058094    32.962419     5.153651 sc4    1 silica          1.1000
    886 Si62         1.280571    40.676558     9.487608 sc4    1 silica          1.1000
    887 Si63         3.055034    27.143089    11.974863 sc4    1 silica          1.1000
    888 Si64        18.648891    26.583425     8.499860 sc4    1 silica          1.1000
    889 O111         2.514018    29.717838     9.519347 oc23   1 silica         -0.5500
    890 O112        16.207268    31.869194     5.267158 oc23   1 silica         -0.5500
    891 O113         8.517707    32.286208     5.424270 oc23   1 silica         -0.5500
    892 O114         8.000145    21.831798    22.508836 oc23   1 silica         -0.5500
    893 O115         6.352763    20.300389    20.992243 oc23   1 silica         -0.5500
    894 O116        15.935223    23.748234     4.499974 oc23   1 silica         -0.5500
    895 O117         8.413372    27.610442     5.882593 oc23   1 silica         -0.5500
    896 O118         2.182537    37.533983     3.700847 oc23   1 silica         -0.5500
    897 O119        14.271311    31.015613     9.750208 oc23   1 silica         -0.5500
    898 O120        17.645658    20.248475    10.327024 oc23   1 silica         -0.5500
    899 O121        14.753476    34.071181     2.959112 oc24   1 silica         -0.6750
    900 O122         7.492502    26.584959    20.636684 oc23   1 silica         -0.5500
    901 O123        16.856053    26.525421    16.108648 oc23   1 silica         -0.5500
    902 O124        10.995574    32.697048     6.378995 oc23   1 silica         -0.5500
    903 O125         1.237748    35.721208    16.956596 oc23   1 silica         -0.5500
    904 O126        15.110786    39.012318    23.732833 oc23   1 silica         -0.5500
    905 Si65        16.810739    35.937816    11.850803 sc4    1 silica          1.1000
    906 Si66         0.097217    41.036436    14.780800 sc4    1 silica          1.1000
    907 Si67        11.135546    24.748402    18.093244 sc4    1 silica          1.1000
    908 Si68         1.527225    20.431687    21.878010 sc4    1 silica          1.1000
    909 Si69        12.909316    36.780376     7.537150 sc4    1 silica          1.1000
    910 Si70         0.325027    21.953526    17.182287 sc4    1 silica          1.1000
    911 Si71        16.489028    40.100735     9.352989 sc4    1 silica          1.1000
    912 Si72        11.320148    40.458915    23.260724 sc4    1 silica          1.1000
    913 O127        17.051095    30.560939    14.569108 oc23   1 silica         -0.5500
    914 O128         5.370453    22.211109    21.751968 oc23   1 silica         -0.5500
    915 O129        15.473538    36.894481    11.880053 oc23   1 silica         -0.5500
    916 O130         1.415545    40.189774    14.988714 oc23   1 silica         -0.5500
    917 O131         0.579557    28.145991    15.781962 oc23   1 silica         -0.5500
    918 O132         3.821422    39.511614    15.974083 oc23   1 silica         -0.5500
    919 O133         6.128088    38.121820     3.508537 oc23   1 silica         -0.5500
    920 O134         8.496420    37.477055    10.657024 oc23   1 silica         -0.5500
    921 O135        18.734036    37.558967    13.623353 oc23   1 silica         -0.5500
    922 O136         4.935093    33.490303     8.449620 oc23   1 silica         -0.5500
    923 O137        15.370453    41.063616    14.415043 oc23   1 silica         -0.5500
    924 O138        15.968040    38.831301    10.163185 oc23   1 silica         -0.5500
    925 O139         1.630132    39.163338     5.490371 oc23   1 silica         -0.5500
    926 O140        13.024093    29.148688    14.632330 oc23   1 silica         -0.5500
    927 O141        18.371646    32.437144    21.172749 oc23   1 silica         -0.5500
    928 O142         0.136322    38.378326    23.464719 oc23   1 silica         -0.5500
    929 Si73         3.130592    36.421824     4.346476 sc4    1 silica          1.1000
    930 Si74         4.912033    29.293327    16.578610 sc4    1 silica          1.1000
    931 Si75        17.283350    24.625019     4.444518 sc4    1 silica          1.1000
    932 Si76        18.610311    37.817170    23.351543 sc4    1 silica          1.1000
    933 Si77         4.334847    24.939115    19.758094 sc4    1 silica          1.1000
    934 Si78        18.431837    25.468159    22.666962 sc4    1 silica          1.1000
    935 Si79        39.773937    22.652732    13.305332 sc4    1 silica          1.1000
    936 Si80         4.118518    21.995827    18.801975 sc4    1 silica          1.1000
    937 O143        18.021997    30.015568     4.838935 oc23   1 silica         -0.5500
    938 O144         2.218510    34.120359    23.555609 oc24   1 silica         -0.6750
    939 O145         0.415968    22.388313     4.921233 oc23   1 silica         -0.5500
    940 O146         8.181119    21.977059     8.916229 oc23   1 silica         -0.5500
    941 O147        15.914703    33.192450     7.358981 oc23   1 silica         -0.5500
    942 O148         8.310569    24.522432    19.190301 oc23   1 silica         -0.5500
    943 O149        12.641707    40.074054    24.090681 oc23   1 silica         -0.5500
    944 O150        12.177200    27.794774    20.877840 oc23   1 silica         -0.5500
    945 O151        14.166775    35.354743    22.527981 oc23   1 silica         -0.5500
    946 O152        11.127847    20.623683    17.972820 oc23   1 silica         -0.5500
    947 O153        19.882967    32.958814    17.006998 oc23   1 silica         -0.5500
    948 O154        19.115575    20.878408    19.488422 oc23   1 silica         -0.5500
    949 O155         1.411731    30.805220    23.705685 oc24   1 silica         -0.6750
    950 O156         2.391291    20.467691     9.773023 oc23   1 silica         -0.5500
    951 O157         9.963758    27.002842    14.556194 oc23   1 silica         -0.5500
    952 O158         6.314867    24.504866    11.399893 oc23   1 silica         -0.5500
    953 Si81         3.022818    40.368801    14.903844 sc4    1 silica          1.1000
    954 Si82         6.180296    30.304433     7.775211 sc4    1 silica          1.1000
    955 Si83         5.175088    20.605992     6.712644 sc4    1 silica          1.1000
    956 Si84         0.460971    29.665676    15.230530 sc4    1 silica          1.1000
    957 Si85         3.150108    30.292127     8.134395 sc4    1 silica          1.1000
    958 Si86         6.307852    25.339057     8.151368 sc4    1 silica          1.1000
    959 Si87        12.583129    22.166403     6.464338 sc4    1 silica          1.1000
    960 Si88         2.376322    23.559346    12.378793 sc4    1 silica          1.1000
    961 O159         1.697482    27.386833    19.903330 oc23   1 silica         -0.5500
    962 O160        17.594982    29.603237    10.047681 oc23   1 silica         -0.5500
    963 O161        10.529858    24.494383    14.124619 oc23   1 silica         -0.5500
    964 O162         0.071261    28.813792    11.159966 oc23   1 silica         -0.5500
    965 O163         2.573337    22.693583     8.696605 oc23   1 silica         -0.5500
    966 O164        14.269659    32.930143    23.330484 oc23   1 silica         -0.5500
    967 O165         9.843136    22.274707    19.561701 oc23   1 silica         -0.5500
    968 O166        18.357255    22.767207     9.513648 oc23   1 silica         -0.5500
    969 O167         7.854368    39.555575    15.823087 oc23   1 silica         -0.5500
    970 O168        18.765845    27.096850     7.033122 oc23   1 silica         -0.5500
    971 O169        11.606786    40.175397    21.723071 oc23   1 silica         -0.5500
    972 O170        15.702365    27.973884    10.764062 oc23   1 silica         -0.5500
    973 O171         0.225791    32.857844     8.508661 oc23   1 silica         -0.5500
    974 O172         3.918480    23.554541    15.564794 oc23   1 silica         -0.5500
    975 O173        13.076664    24.734358    13.831575 oc23   1 silica         -0.5500
    976 O174         1.704630    26.833054    11.173116 oc23   1 silica         -0.5500
    977 Si89         5.837459    30.133815    13.806597 sc4    1 silica          1.1000
    978 Si90        13.495211    27.686262    15.124908 sc4    1 silica          1.1000
    979 Si91         7.248033    25.757562    19.272197 sc4    1 silica          1.1000
    980 Si92        17.801999    28.675078    20.279474 sc4    1 silica          1.1000
    981 Si93        10.304297    31.005088    14.487236 sc4    1 silica          1.1000
    982 Si94         1.723582    36.270308    15.596593 sc4    1 silica          1.1000
    983 Si95         9.803264    21.792438     8.883039 sc4    1 silica          1.1000
    984 Si96         7.748299    32.277051    14.529895 sc4    1 silica          1.1000
    985 O175         6.616179    29.067107     6.796783 oc23   1 silica         -0.5500
    986 O176         4.153672    31.002934    10.814229 oc23   1 silica         -0.5500
    987 O177         7.954307    27.959507    15.830594 oc23   1 silica         -0.5500
    988 O178         6.060158    34.918341    13.202378 oc23   1 silica         -0.5500
    989 O179         6.321115    29.169568    17.410221 oc23   1 silica         -0.5500
    990 O180        13.482835    38.167560    10.618260 oc23   1 silica         -0.5500
    991 O181        12.338862    38.029965     8.266170 oc23   1 silica         -0.5500
    992 O182         4.920862    33.369239    11.605423 oc23   1 silica         -0.5500
    993 O183        17.388370    36.057223    19.932981 oc23   1 silica         -0.5500
    994 O184        17.302821    29.848183    19.484503 oc23   1 silica         -0.5500
    995 O185        16.722289    27.656018    19.999933 oc23   1 silica         -0.5500
    996 O186         3.791859    33.653132    13.652367 oc23   1 silica         -0.5500
    997 O187        15.509500    28.941899    13.095033 oc23   1 silica         -0.5500
    998 O188        13.065456    24.552057    24.160490 oc23   1 silica         -0.5500
    999 O189         1.440806    22.661723    16.406579 oc23   1 silica         -0.5500
   1000 O190        10.340781    38.781335    17.308211 oc23   1 silica         -0.5500
   1001 Si97        16.546798    28.568307     9.468883 sc4    1 silica          1.1000
   1002 Si98         6.839483    34.115884    16.762255 sc4    1 silica          1.1000
   1003 Si99         4.209831    22.088180    22.882525 sc4    1 silica          1.1000
   1004 Si100       18.407366    37.100976    20.287477 sc4    1 silica          1.1000
   1005 Si101       17.230093    24.681698    20.041932 sc4    1 silica          1.1000
   1006 Si102        1.701022    38.271432    22.825134 sc4    1 silica          1.1000
   1007 Si103       15.665477    26.988756    20.915990 sc4    1 silica          1.1000
   1008 Si104       13.710291    31.614471    17.978793 sc4    1 silica          1.1000
   1009 O191        12.583533    31.636097    19.169267 oc23   1 silica         -0.5500
   1010 O192        40.288622    29.243069     5.769156 oc23   1 silica         -0.5500
   1011 O193        16.010290    20.443206    24.068348 oc23   1 silica         -0.5500
   1012 O194         6.421701    20.409356    16.963938 oc23   1 silica         -0.5500
   1013 O195         3.720667    23.472671    19.474635 oc23   1 silica         -0.5500
   1014 O196        14.827937    27.297300    14.601191 oc23   1 silica         -0.5500
   1015 O197         9.953558    36.796784    15.613426 oc23   1 silica         -0.5500
   1016 O198        11.772520    31.355770    14.880307 oc23   1 silica         -0.5500
   1017 O199        14.239140    26.709006    20.464701 oc23   1 silica         -0.5500
   1018 O200        11.693665    26.614749     5.534966 oc23   1 silica         -0.5500
   1019 O201        17.991478    36.252905    17.493840 oc23   1 silica         -0.5500
   1020 O202         4.384958    40.085073    22.131676 oc23   1 silica         -0.5500
   1021 O203        15.216370    31.194185    18.481499 oc23   1 silica         -0.5500
   1022 O204        12.514836    21.986008    19.867210 oc23   1 silica         -0.5500
   1023 O205         2.303591    25.151619     8.033736 oc23   1 silica         -0.5500
   1024 O206        15.310505    28.751604    18.482136 oc23   1 silica         -0.5500
   1025 Si105       19.423540    30.626609     5.321339 sc4    1 silica          1.1000
   1026 Si106       16.826342    34.436445     7.637223 sc4    1 silica          1.1000
   1027 Si107        5.823107    26.000352    11.072169 sc4    1 silica          1.1000
   1028 Si108        0.056308    33.810200    12.682815 sc4    1 silica          1.1000
   1029 Si109       19.424629    33.190294     6.847965 sc4    1 silica          1.1000
   1030 Si110        9.625758    23.748898    12.970619 sc4    1 silica          1.1000
   1031 Si111       10.495389    31.790557    11.515147 sc4    1 silica          1.1000
   1032 Si112        0.300096    30.035124    12.209666 sc4    1 silica          1.1000
   1033 O207        10.541831    35.949003    10.882834 oc23   1 silica         -0.5500
   1034 O208         0.345736    33.287329    11.195071 oc23   1 silica         -0.5500
   1035 O209         9.966378    29.514034    15.072759 oc23   1 silica         -0.5500
   1036 O210        18.288357    37.122521     8.389805 oc23   1 silica         -0.5500
   1037 O211         8.076341    25.337731     4.901945 oc24   1 silica         -0.6750
   1038 O212         7.470410    32.628767    20.779536 oc23   1 silica         -0.5500
   1039 O213         6.055320    33.013089    22.759481 oc23   1 silica         -0.5500
   1040 O214         7.005056    35.023205    21.587586 oc23   1 silica         -0.5500
   1041 O215         1.793927    30.471030    15.371870 oc23   1 silica         -0.5500
   1042 O216        15.004637    27.020037     3.864615 oc24   1 silica         -0.6750
   1043 O217        15.311029    28.299372    22.091425 oc23   1 silica         -0.5500
   1044 O218        13.967781    22.000425     9.955214 oc23   1 silica         -0.5500
   1045 O219        12.674603    34.434497    10.714108 oc23   1 silica         -0.5500
   1046 O220        39.982285    35.072633     9.476168 oc23   1 silica         -0.5500
   1047 O221        19.351537    30.187097    16.050006 oc23   1 silica         -0.5500
   1048 O222        16.982157    34.448751     9.084565 oc23   1 silica         -0.5500
   1049 Si113        2.544528    31.416673    16.452190 sc4    1 silica          1.1000
   1050 Si114       12.924677    34.958488    14.273844 sc4    1 silica          1.1000
   1051 Si115       17.812239    25.599457    17.023123 sc4    1 silica          1.1000
   1052 Si116        4.435190    37.079516    11.256522 sc4    1 silica          1.1000
   1053 Si117       16.017182    26.258103    14.714391 sc4    1 silica          1.1000
   1054 Si118        4.658534    34.471994    12.651606 sc4    1 silica          1.1000
   1055 Si119        0.712665    29.882571    22.611011 sc4    1 silica          1.1000
   1056 Si120        7.422435    39.045091    14.457490 sc4    1 silica          1.1000
   1057 O223         6.136111    29.182205    12.615155 oc23   1 silica         -0.5500
   1058 O224        10.812787    39.060585    14.741186 oc23   1 silica         -0.5500
   1059 O225         0.812440    32.635603    21.814198 oc23   1 silica         -0.5500
   1060 O226         5.052894    31.300914    13.145908 oc23   1 silica         -0.5500
   1061 O227        17.539550    39.607820     8.216969 oc23   1 silica         -0.5500
   1062 O228        13.709001    37.804825    21.826804 oc23   1 silica         -0.5500
   1063 O229         6.691044    31.470494    11.185250 oc23   1 silica         -0.5500
   1064 O230         3.507801    28.662483    11.648909 oc23   1 silica         -0.5500
   1065 O231         3.937230    30.564169    16.959003 oc23   1 silica         -0.5500
   1066 O232        14.114890    37.228960     6.617174 oc23   1 silica         -0.5500
   1067 O233        18.842564    33.384071    13.416454 oc23   1 silica         -0.5500
   1068 O234         3.393630    21.683223    17.490747 oc23   1 silica         -0.5500
   1069 O235         0.913533    34.057052    18.753367 oc23   1 silica         -0.5500
   1070 O236         4.165283    25.370380    21.339822 oc23   1 silica         -0.5500
   1071 O237        10.596861    24.325383     5.063163 oc23   1 silica         -0.5500
   1072 O238        13.140844    21.082500     7.532404 oc23   1 silica         -0.5500
   1073 Si121        4.972264    29.183158    21.947465 sc4    1 silica          1.1000
   1074 Si122        4.104972    26.374897    17.000317 sc4    1 silica          1.1000
   1075 Si123        4.831444    33.186565     4.606256 sc4    1 silica          1.1000
   1076 Si124       18.060014    38.712474    14.624232 sc4    1 silica          1.1000
   1077 Si125       16.740713    30.714277     4.211651 sc4    1 silica          1.1000
   1078 Si126        3.460177    21.446026     9.125643 sc4    1 silica          1.1000
   1079 Si127        3.396161    38.313113    16.765489 sc4    1 silica          1.1000
   1080 Si128       39.999418    23.641962     5.594860 sc4    1 silica          1.1000
   1081 O239        19.387942    38.675226     6.544439 oc23   1 silica         -0.5500
   1082 O240        18.906946    40.073017    14.418561 oc23   1 silica         -0.5500
   1083 O241         4.107068    31.688510    23.802382 oc24   1 silica         -0.6750
   1084 O242         4.645150    20.880769    23.855311 oc23   1 silica         -0.5500
   1085 O243         2.816669    32.825029    15.810009 oc23   1 silica         -0.5500
   1086 O244         0.365513    23.932442     9.355494 oc23   1 silica         -0.5500
   1087 O245        17.377767    25.502755    18.595713 oc23   1 silica         -0.5500
   1088 O246         8.535083    35.507047    13.888399 oc23   1 silica         -0.5500
   1089 O247         1.441822    27.239915     6.634880 oc23   1 silica         -0.5500
   1090 O248        39.830419    21.190720    16.080271 oc23   1 silica         -0.5500
   1091 O249        14.563029    37.246652    19.389812 oc23   1 silica         -0.5500
   1092 O250        14.379153    23.700505    19.105738 oc23   1 silica         -0.5500
   1093 O251         0.040810    20.777273    22.375522 oc23   1 silica         -0.5500
   1094 O252        11.317488    21.410932     5.732588 oc23   1 silica         -0.5500
   1095 O253         1.334818    39.639060    10.675462 oc23   1 silica         -0.5500
   1096 Si129        1.558964    38.129527    10.944568 sc4    1 silica          1.1000
   1097 Si130       10.230077    41.169184     5.959908 sc4    1 silica          1.1000
   1098 Si131        4.657768    35.818491    17.865923 sc4    1 silica          1.1000
   1099 Si132       18.331654    27.117940    13.062784 sc4    1 silica          1.1000
   1100 Si133        2.125710    39.080183     3.977461 sc4    1 silica          1.1000
   1101 Si134       11.724021    25.340632     4.590462 sc4    1 silica          1.1000
   1102 Si135        6.814649    21.755398    21.370465 sc4    1 silica          1.1000
   1103 Si136       18.659655    21.588882    10.542762 sc4    1 silica          1.1000
   1104 O254         2.608907    29.638951     6.766306 oc23   1 silica         -0.5500
   1105 O255         4.161211    23.507474    23.534764 oc23   1 silica         -0.5500
   1106 O256        10.334412    23.306777    21.698520 oc23   1 silica         -0.5500
   1107 O257         2.531288    24.186419    10.841968 oc23   1 silica         -0.5500
   1108 O258         7.517860    37.428000    14.825797 oc23   1 silica         -0.5500
   1109 O259         2.715878    21.617553    22.281020 oc23   1 silica         -0.5500
   1110 O260         3.119949    21.164370    15.018224 oc23   1 silica         -0.5500
   1111 O261        18.604949    27.443138     4.259339 oc24   1 silica         -0.6750
   1112 O262        14.312311    31.444019    14.597815 oc23   1 silica         -0.5500
   1113 O263        14.038493    34.030122    13.732988 oc23   1 silica         -0.5500
   1114 O264        10.025882    26.042905    21.616458 oc23   1 silica         -0.5500
   1115 O265        13.968789    28.202754    16.513688 oc23   1 silica         -0.5500
   1116 O266        17.586718    31.986114    16.640227 oc23   1 silica         -0.5500
   1117 O267         0.496501    36.391453    14.705892 oc23   1 silica         -0.5500
   1118 O268        10.564004    21.222498    23.469913 oc23   1 silica         -0.5500
   1119 Si137       19.269699    23.654972     8.548539 sc4    1 silica          1.1000
   1120 Si138        8.482794    36.285224    15.295215 sc4    1 silica          1.1000
   1121 Si139       16.993486    32.592722    22.062411 sc4    1 silica          1.1000
   1122 Si140       13.939359    24.082385    14.991949 sc4    1 silica          1.1000
   1123 Si141        1.936601    25.700676     6.446207 sc4    1 silica          1.1000
   1124 Si142       10.956146    21.374224    11.783828 sc4    1 silica          1.1000
   1125 Si143        1.093365    38.194202    18.568093 sc4    1 silica          1.1000
   1126 Si144        0.021665    36.901771    13.303112 sc4    1 silica          1.1000
   1127 O269         2.980133    25.852731    16.002578 oc23   1 silica         -0.5500
   1128 O270         2.718405    26.997414    13.570613 oc23   1 silica         -0.5500
   1129 O271         3.517948    39.833625    13.541339 oc23   1 silica         -0.5500
   1130 O272         4.928159    38.109390    12.322583 oc23   1 silica         -0.5500
   1131 O273        14.191811    38.863121    14.835381 oc23   1 silica         -0.5500
   1132 O274        14.808264    39.452864    12.474688 oc23   1 silica         -0.5500
   1133 O275        13.710976    22.425270     5.298415 oc23   1 silica         -0.5500
   1134 O276         6.039920    39.725402    14.015314 oc23   1 silica         -0.5500
   1135 O277         0.469558    39.372485    19.466537 oc23   1 silica         -0.5500
   1136 O278        16.778930    30.630170    12.010770 oc23   1 silica         -0.5500
   1137 O279         0.023409    29.559321    13.727039 oc23   1 silica         -0.5500
   1138 O280        17.226708    25.764151     5.472617 oc23   1 silica         -0.5500
   1139 O281        13.583218    24.254492    16.550351 oc23   1 silica         -0.5500
   1140 O282        16.101964    25.435263    21.004897 oc23   1 silica         -0.5500
   1141 O283         1.666299    31.748048    17.693515 oc23   1 silica         -0.5500
   1142 O284         0.580029    37.434381     9.907916 oc23   1 silica         -0.5500
   1143 Si145        4.802014    32.125327    22.373279 sc4    1 silica          1.1000
   1144 Si146       15.246204    39.576580    13.974166 sc4    1 silica          1.1000
   1145 Si147       16.414002    39.895813    23.397271 sc4    1 silica          1.1000
   1146 Si148        7.057183    28.410743     5.418132 sc4    1 silica          1.1000
   1147 Si149       13.867801    22.457379    11.494726 sc4    1 silica          1.1000
   1148 Si150        7.364825    39.852060    17.222019 sc4    1 silica          1.1000
   1149 Si151        6.552321    21.990152    17.273342 sc4    1 silica          1.1000
   1150 O285         5.201211    38.976354    19.861166 oc23   1 silica         -0.5500
   1151 O286        11.383080    23.246204    17.975157 oc23   1 silica         -0.5500
   1152 O287        15.361060    24.854262    14.740359 oc23   1 silica         -0.5500
   1153 O288        12.763700    40.422869     9.552747 oc23   1 silica         -0.5500
   1154 O289         5.890392    24.940688    19.400718 oc23   1 silica         -0.5500
   1155 O290         5.620767    22.288048    18.376207 oc23   1 silica         -0.5500
   1156 O291        17.841709    28.948945    21.851380 oc23   1 silica         -0.5500
   1157 O292         5.761587    24.377917    13.905326 oc23   1 silica         -0.5500
   1158 O293         5.826655    27.207722     5.056387 oc23   1 silica         -0.5500
   1159 O294         1.018271    39.787427     8.032894 oc23   1 silica         -0.5500
   1160 O295        19.608907    28.713899    23.506458 oc23   1 silica         -0.5500
   1161 O296        39.898186    30.676325    21.818944 oc23   1 silica         -0.5500
   1162 O297         8.918113    33.837296    19.186217 oc23   1 silica         -0.5500
   1163 O298        11.028995    37.161633     4.390670 oc23   1 silica         -0.5500
   1164 O299        13.646190    28.513286     5.640872 oc23   1 silica         -0.5500
   1165 O300         5.761264    31.845040     4.720023 oc23   1 silica         -0.5500
   1166 Si152       16.558490    21.962723    24.038602 sc4    1 silica          1.1000
   1167 Si153       12.953543    26.492939    21.270060 sc4    1 silica          1.1000
   1168 Si154        1.961665    24.027611     9.254899 sc4    1 silica          1.1000
   1169 Si155        8.790275    26.680915     7.217263 sc4    1 silica          1.1000
   1170 Si156        6.504669    23.717701    12.708123 sc4    1 silica          1.1000
   1171 Si157       10.856367    25.783332    15.154252 sc4    1 silica          1.1000
   1172 Si158       15.057207    32.471408     6.189778 sc4    1 silica          1.1000
   1173 Si159        4.999920    25.796549     5.593821 sc4    1 silica          1.1000
   1174 O301        14.594676    39.754696    20.073235 oc23   1 silica         -0.5500
   1175 O302         5.323648    30.687016    21.717146 oc23   1 silica         -0.5500
   1176 O303         2.210846    35.512599     5.244000 oc23   1 silica         -0.5500
   1177 O304         7.205743    30.805885    14.276229 oc23   1 silica         -0.5500
   1178 O305        17.338702    24.200216    16.395909 oc23   1 silica         -0.5500
   1179 O306        10.612624    39.621864     5.560133 oc23   1 silica         -0.5500
   1180 O307        17.881903    21.798074    17.141516 oc23   1 silica         -0.5500
   1181 O308        10.981263    40.422331    12.508590 oc23   1 silica         -0.5500
   1182 O309         3.093522    37.608726    23.670178 oc23   1 silica         -0.5500
   1183 O310        18.982577    31.840772     6.229344 oc23   1 silica         -0.5500
   1184 O311        13.531736    29.384021    11.533773 oc23   1 silica         -0.5500
   1185 O312         2.041605    28.461371     4.486375 oc24   1 silica         -0.6750
   1186 O313         7.276535    30.590810     8.921917 oc23   1 silica         -0.5500
   1187 O314        10.683135    21.457917    10.166250 oc23   1 silica         -0.5500
   1188 O315         9.993993    22.230870    12.649882 oc23   1 silica         -0.5500
   1189 O316        11.488947    24.936547     9.395231 oc23   1 silica         -0.5500
   1190 Si160       12.170589    32.107552    20.666219 sc4    1 silica          1.1000
   1191 Si161       12.601554    26.068136    24.107184 sc4    1 silica          1.1000
   1192 Si162        5.371985    24.157335    15.433345 sc4    1 silica          1.1000
   1193 Si163        7.541041    34.676875    12.931099 sc4    1 silica          1.1000
   1194 Si164       12.329308    38.814686     9.694468 sc4    1 silica          1.1000
   1195 Si165       17.655414    30.943646    10.828889 sc4    1 silica          1.1000
   1196 Si166        9.048693    28.221149    14.706270 sc4    1 silica          1.1000
   1197 Si167       12.036541    28.205613     5.588556 sc4    1 silica          1.1000
   1198 O317         5.001653    40.742020    11.822073 oc23   1 silica         -0.5500
   1199 O318         4.455710    37.103713    16.908483 oc23   1 silica         -0.5500
   1200 O319        11.114140    34.064012    18.074216 oc23   1 silica         -0.5500
   1201 O320         7.757289    33.132250    13.210286 oc23   1 silica         -0.5500
   1202 O321        10.036808    24.397473    11.540218 oc23   1 silica         -0.5500
   1203 O322        16.542605    40.262362    21.819439 oc23   1 silica         -0.5500
   1204 O323        18.005629    28.651173    12.878572 oc23   1 silica         -0.5500
   1205 O324        17.772892    21.887318    22.927828 oc23   1 silica         -0.5500
   1206 O325         9.729327    26.618063    10.499489 oc23   1 silica         -0.5500
   1207 O326        40.157734    31.844336    19.526501 oc23   1 silica         -0.5500
   1208 O327         5.359125    25.589347    16.342036 oc23   1 silica         -0.5500
   1209 O328         7.694519    35.131840    11.434384 oc23   1 silica         -0.5500
   1210 O329        17.984101    26.884139    23.210107 oc23   1 silica         -0.5500
   1211 O330        13.868083    24.086403    11.499731 oc23   1 silica         -0.5500
   1212 O331         7.281575    22.534401    20.107821 oc23   1 silica         -0.5500
   1213 O332         5.167871    29.347437    15.009513 oc23   1 silica         -0.5500
   1214 Si168        5.072688    40.389227    20.666478 sc4    1 silica          1.1000
   1215 Si169        9.274294    29.709222    19.442434 sc4    1 silica          1.1000
   1216 Si170       13.847361    22.721385    20.329617 sc4    1 silica          1.1000
   1217 Si171        8.324558    34.145094     8.630983 sc4    1 silica          1.1000
   1218 Si172        7.522214    37.191796     3.422204 sc4    1 silica          1.1000
   1219 Si173       15.545420    36.750670     6.178351 sc4    1 silica          1.1000
   1220 Si174       18.119236    28.398934    23.240632 sc4    1 silica          1.1000
   1221 Si175       16.277132    33.615968    10.128798 sc4    1 silica          1.1000
   1222 O333         0.796104    20.740936    17.967367 oc23   1 silica         -0.5500
   1223 O334        10.782551    32.327723     3.950265 oc24   1 silica         -0.6750
   1224 O335        10.174402    39.309964    23.765152 oc24   1 silica         -0.6750
   1225 O336         5.314496    33.901143     5.926456 oc23   1 silica         -0.5500
   1226 O337        13.271061    33.285465    21.044746 oc23   1 silica         -0.5500
   1227 O338         8.379669    29.200188    20.765630 oc23   1 silica         -0.5500
   1228 O339         4.687883    29.990586     8.359332 oc23   1 silica         -0.5500
   1229 O340        10.480432    25.385420    16.755551 oc23   1 silica         -0.5500
   1230 O341         8.553385    27.515812    22.732496 oc23   1 silica         -0.5500
   1231 O342        18.089000    36.337635    23.760832 oc23   1 silica         -0.5500
   1232 O343        15.848909    33.472157    21.418483 oc23   1 silica         -0.5500
   1233 O344         3.320099    25.635421     5.481518 oc23   1 silica         -0.5500
   1234 O345        10.201453    34.563268     4.939316 oc23   1 silica         -0.5500
   1235 O346         6.137683    31.709516     7.008357 oc23   1 silica         -0.5500
   1236 O347         7.384176    29.793411     4.370745 oc23   1 silica         -0.5500
   1237 O348         4.242445    26.154563    11.517531 oc23   1 silica         -0.5500
   1238 Si176        5.970539    33.295780     7.252935 sc4    1 silica          1.1000
   1239 Si177        9.902963    32.423885    23.750114 sc4    1 silica          1.1000
   1240 Si178        2.966120    30.018509    11.010954 sc4    1 silica          1.1000
   1241 Si179        5.192504    31.827513    11.607264 sc4    1 silica          1.1000
   1242 Si180        2.076884    33.601840    21.959150 sc4    1 silica          1.1000
   1243 Si181        2.532683    28.237184    21.009594 sc4    1 silica          1.1000
   1244 Si182        7.364018    33.536708    22.092818 sc4    1 silica          1.1000
   1245 Si183       13.744599    37.509910    15.539911 sc4    1 silica          1.1000
   1246 O349        13.794830    30.495061    23.225689 oc23   1 silica         -0.5500
   1247 O350         7.913186    22.343607    17.784429 oc23   1 silica         -0.5500
   1248 O351         7.725481    33.094463     9.772411 oc23   1 silica         -0.5500
   1249 O352         3.568697    32.963165    21.665728 oc23   1 silica         -0.5500
   1250 O353        10.240922    30.964486    12.873827 oc23   1 silica         -0.5500
   1251 O354         6.207750    28.376105    22.071193 oc23   1 silica         -0.5500
   1252 O355        18.314158    38.126956    18.977217 oc23   1 silica         -0.5500
   1253 O356        19.366616    25.857578    16.637110 oc23   1 silica         -0.5500
   1254 O357         7.646585    25.601406     7.390168 oc23   1 silica         -0.5500
   1255 O358         7.408445    33.816208     7.404615 oc23   1 silica         -0.5500
   1256 O359        14.936787    21.521804    20.694972 oc23   1 silica         -0.5500
   1257 O360        18.568907    22.184053    12.061645 oc23   1 silica         -0.5500
   1258 O361        10.905107    38.562158    10.232316 oc23   1 silica         -0.5500
   1259 O362        10.281881    39.947727    19.559292 oc23   1 silica         -0.5500
   1260 O363         9.815319    30.965605    23.347482 oc23   1 silica         -0.5500
   1261 O364        10.967394    29.727948    19.740152 oc23   1 silica         -0.5500
   1262 Si184        8.013852    32.598935    19.286668 sc4    1 silica          1.1000
   1263 Si185       13.498920    30.954460    11.108407 sc4    1 silica          1.1000
   1264 Si186        7.624210    27.967130    21.527575 sc4    1 silica          1.1000
   1265 Si187        8.043363    21.523669     3.975360 sc4    1 silica          1.1000
   1266 Si188       10.065431    27.141971    22.754524 sc4    1 silica          1.1000
   1267 Si189       12.508426    34.287994    17.289514 sc4    1 silica          1.1000
   1268 Si190       12.443156    29.032222    19.958289 sc4    1 silica          1.1000
   1269 Si191        6.296967    37.866020    19.330155 sc4    1 silica          1.1000
   1270 O365        11.820132    35.151478    13.107970 oc23   1 silica         -0.5500
   1271 O366         9.949446    33.872721     8.374460 oc23   1 silica         -0.5500
   1272 O367         3.253443    22.203940    12.340619 oc23   1 silica         -0.5500
   1273 O368         4.263731    37.374594     4.985493 oc23   1 silica         -0.5500
   1274 O369         1.113014    37.769979    12.473957 oc23   1 silica         -0.5500
   1275 O370         1.807888    30.558370    11.898491 oc23   1 silica         -0.5500
   1276 O371        18.178822    34.240719     6.853277 oc23   1 silica         -0.5500
   1277 O372        11.903947    25.897313    11.861309 oc23   1 silica         -0.5500
   1278 O373        12.912219    28.243563    18.708536 oc23   1 silica         -0.5500
   1279 O374         4.528035    21.878037    10.213588 oc23   1 silica         -0.5500
   1280 O375         6.927531    38.468565    17.971781 oc23   1 silica         -0.5500
   1281 O376        18.172411    36.360754    11.111783 oc23   1 silica         -0.5500
   1282 O377         3.135421    37.743587    10.530250 oc23   1 silica         -0.5500
   1283 O378         9.236761    31.954255    15.011071 oc23   1 silica         -0.5500
   1284 O379        13.078276    21.970761    23.752617 oc24   1 silica         -0.6750
   1285 O380        10.943448    26.466670    23.975428 oc23   1 silica         -0.5500
   1286 Si192       10.082645    40.145318    18.043313 sc4    1 silica          1.1000
   1287 Si193       10.229351    36.575703    21.620684 sc4    1 silica          1.1000
   1288 Si194        5.021407    38.787632     4.574574 sc4    1 silica          1.1000
   1289 Si195       14.416928    33.835930    22.050679 sc4    1 silica          1.1000
   1290 Si196        0.049769    20.892575     4.413993 sc4    1 silica          1.1000
   1291 Si197        0.150123    27.258064    10.942278 sc4    1 silica          1.1000
   1292 Si198       10.384402    34.216150    19.479097 sc4    1 silica          1.1000
   1293 Si199        9.351174    28.036695     9.745647 sc4    1 silica          1.1000
   1294 O381         5.631289    24.290041     5.084056 oc23   1 silica         -0.5500
   1295 O382        10.275593    35.685577    20.240120 oc23   1 silica         -0.5500
   1296 O383        39.109347    20.861877     3.352324 oc24   1 silica         -0.6750
   1297 O384         1.743788    29.492033    21.501676 oc23   1 silica         -0.5500
   1298 O385         6.312005    22.985969    15.966174 oc23   1 silica         -0.5500
   1299 O386        40.182124    35.468680    12.459249 oc23   1 silica         -0.5500
   1300 O387        10.627258    28.585461    22.318910 oc23   1 silica         -0.5500
   1301 O388         4.087677    20.728257    19.857200 oc23   1 silica         -0.5500
   1302 O389        10.863422    33.054854    20.416022 oc23   1 silica         -0.5500
   1303 O390         8.417524    28.535494    13.219517 oc23   1 silica         -0.5500
   1304 O391        15.313932    35.828559     4.892454 oc23   1 silica         -0.5500
   1305 O392        12.479198    21.900824    12.060961 oc23   1 silica         -0.5500
   1306 O393         3.761458    39.472667     3.940656 oc23   1 silica         -0.5500
   1307 O394         6.378524    23.760001     8.265496 oc23   1 silica         -0.5500
   1308 O395         6.580904    21.327654     7.019735 oc23   1 silica         -0.5500
   1309 O396         2.928949    34.173392     7.161572 oc23   1 silica         -0.5500
   1310 Si200        5.223788    22.683722     4.530310 sc4    1 silica          1.1000
   1311 Si201        9.021077    24.020111     5.240364 sc4    1 silica          1.1000
   1312 Si202       11.377557    34.752321    11.611821 sc4    1 silica          1.1000
   1313 Si203       10.827341    25.519205    10.776315 sc4    1 silica          1.1000
   1314 Si204       10.995977    24.422707     7.935694 sc4    1 silica          1.1000
   1315 Si205       13.819302    20.704268     8.946204 sc4    1 silica          1.1000
   1316 Si206       10.978601    30.041837    22.862316 sc4    1 silica          1.1000
   1317 Si207       11.415292    35.754312     5.115832 sc4    1 silica          1.1000
   1318 O397        10.259427    25.799947     7.277770 oc23   1 silica         -0.5500
   1319 O398        11.823721    36.047402     6.607542 oc23   1 silica         -0.5500
   1320 O399        13.514240    36.324625    14.500857 oc23   1 silica         -0.5500
   1321 O400         3.960706    35.744535    11.977530 oc23   1 silica         -0.5500
   1322 O401         8.664573    20.907284     5.422522 oc23   1 silica         -0.5500
   1323 O402        12.131161    25.191726    20.921184 oc23   1 silica         -0.5500
   1324 O403         8.765159    36.545125    22.402247 oc23   1 silica         -0.5500
   1325 O404        13.293960    24.784282     4.302919 oc23   1 silica         -0.5500
   1326 O405        16.356432    28.012621     5.813515 oc23   1 silica         -0.5500
   1327 O406         4.603666    21.709242     5.666887 oc23   1 silica         -0.5500
   1328 O407        11.226779    28.933863     6.778393 oc23   1 silica         -0.5500
   1329 O408         3.593216    35.518565     3.093370 oc24   1 silica         -0.6750
   1330 O409        12.366922    37.668926    16.271991 oc23   1 silica         -0.5500
   1331 O410        11.534099    36.231775    22.577369 oc23   1 silica         -0.5500
   1332 O411         7.038558    33.032023    18.047657 oc23   1 silica         -0.5500
   1333 Si208        4.818342    39.615567    12.851989 sc4    1 silica          1.1000
   1334 Si209        0.633140    33.774777     9.697905 sc4    1 silica          1.1000
   1335 Si210       10.860519    38.050640    16.013437 sc4    1 silica          1.1000
   1336 Si211        7.370630    22.577697     7.677829 sc4    1 silica          1.1000
   1337 Si212       14.549564    36.334402    18.076718 sc4    1 silica          1.1000
   1338 Si213       10.188230    39.255980    13.315412 sc4    1 silica          1.1000
   1339 Si214        7.610543    28.166832    17.399833 sc4    1 silica          1.1000
   1340 Si215        4.639626    21.630316    11.750163 sc4    1 silica          1.1000
   1341 O412        12.521367    25.278857    18.396204 oc23   1 silica         -0.5500
   1342 O413        10.676443    28.834590     9.377860 oc23   1 silica         -0.5500
   1343 O414         7.274197    26.692930    17.957947 oc23   1 silica         -0.5500
   1344 O415         6.841580    33.056758    15.560497 oc23   1 silica         -0.5500
   1345 O416        15.111511    21.962807    12.432171 oc23   1 silica         -0.5500
   1346 O417        10.061279    41.417528     7.621666 oc23   1 silica         -0.5500
   1347 O418        13.554676    33.078470    17.470327 oc23   1 silica         -0.5500
   1348 O419         9.350691    31.360160    10.517738 oc23   1 silica         -0.5500
   1349 O420        14.177620    22.534236    14.649422 oc23   1 silica         -0.5500
   1350 O421        15.242050    40.803961     8.666635 oc23   1 silica         -0.5500
   1351 O422         4.006987    28.628426    20.870143 oc23   1 silica         -0.5500
   1352 O423        18.618978    23.808395     4.769859 oc23   1 silica         -0.5500
   1353 O424        17.172927    32.277424    10.066547 oc23   1 silica         -0.5500
   1354 O425         7.306409    37.455054    20.463875 oc23   1 silica         -0.5500
   1355 O426        17.627235    33.487984    23.288887 oc23   1 silica         -0.5500
   1356 O427         0.699143    24.968075     5.708485 oc23   1 silica         -0.5500
   1357 O428        19.140853    34.404087    25.142105 oc24   1 silica         -0.6750
   1358 H1          14.764944    22.259682     2.620362 hoy    1 silica          0.4000
   1359 Si216       20.269062    23.831181    19.875379 sc4    1 silica          1.1000
   1360 O429         5.165049    39.130606    24.239199 oc23   1 silica         -0.5500
   1361 O430         5.822301    37.178537    22.578526 oc23   1 silica         -0.5500
   1362 O431        14.005757    38.740316    26.179695 oc24   1 silica         -0.6750
   1363 H2          11.636875    28.240706     3.506843 hoy    1 silica          0.4000
   1364 O432        13.598740    31.826975    25.499151 oc24   1 silica         -0.6750
   1365 O433         7.664001    32.588620     3.146959 oc23   1 silica         -0.5500
   1366 O434        10.454146    39.151820     2.946836 oc24   1 silica         -0.6750
   1367 H3           4.451908    29.838063    23.937062 hoy    1 silica          0.4000
   1368 H4          14.428997    33.192505     2.925990 hoy    1 silica          0.4000
   1369 O435        17.475329    25.443632     2.997994 oc24   1 silica         -0.6750
   1370 H5           1.363412    34.284387    23.916070 hoy    1 silica          0.4000
   1371 H6           2.263228    30.439929    23.881171 hoy    1 silica          0.4000
   1372 O436        20.318366    31.081698     4.093682 oc24   1 silica         -0.6750
   1373 H7          15.817545    26.939277     3.416746 hoy    1 silica          0.4000
   1374 O437        17.131282    31.330911     2.764559 oc24   1 silica         -0.6750
   1375 O438        15.528649    29.591845     4.071043 oc23   1 silica         -0.5500
   1376 O439         1.007789    39.704604     2.955712 oc24   1 silica         -0.6750
   1377 O440        11.287171    25.877964     3.165090 oc24   1 silica         -0.6750
   1378 H8          18.161174    27.012101     3.547270 hoy    1 silica          0.4000
   1379 H9           2.909401    28.806080     4.432356 hoy    1 silica          0.4000
   1380 O441        13.281987    26.848757    25.304410 oc24   1 silica         -0.6750
   1381 O442         7.521448    35.479371     3.505492 oc23   1 silica         -0.5500
   1382 O443         8.034252    37.488946     1.952377 oc24   1 silica         -0.6750
   1383 O444        16.983810    29.046931    24.274870 oc24   1 silica         -0.6750
   1384 H10         10.145985    32.138196     3.282541 hoy    1 silica          0.4000
   1385 H11          9.699323    39.672125    24.486627 hoy    1 silica          0.4000
   1386 O445         9.505983    32.490757    25.309886 oc24   1 silica         -0.6750
   1387 O446        11.655406    32.623297    23.608940 oc23   1 silica         -0.5500
   1388 O447         2.547725    27.382566    22.350923 oc24   1 silica         -0.6750
   1389 O448         8.509604    20.868048     2.564105 oc24   1 silica         -0.6750
   1390 O449         6.513498    21.854172     3.886617 oc23   1 silica         -0.5500
   1391 H12         38.410345    20.369957     3.740949 hoy    1 silica          0.4000
   1392 O450        11.755952    29.687594    24.251663 oc24   1 silica         -0.6750
   1393 H13          3.980584    36.063689     2.436622 hoy    1 silica          0.4000
   1394 H14         18.436779    34.012430    25.625252 hoy    1 silica          0.4000
   1395 H15         14.071634    37.822072    26.364169 hoy    1 silica          0.4000
   1396 H16         10.017748    39.979538     2.860854 hoy    1 silica          0.4000
   1397 H17         20.908433    30.375351     3.878930 hoy    1 silica          0.4000
   1398 H18         17.975955    31.739294     2.821290 hoy    1 silica          0.4000
   1399 H19          0.543306    38.965955     2.594002 hoy    1 silica          0.4000
   1400 H20         11.339426    25.162819     2.560503 hoy    1 silica          0.4000
   1401 H21         13.854138    26.251663    25.751817 hoy    1 silica          0.4000
   1402 H22          8.473060    38.316722     1.931406 hoy    1 silica          0.4000
   1403 H23          8.906329    31.796244    25.491131 hoy    1 silica          0.4000
   1404 H24          1.660360    27.296971    22.656109 hoy    1 silica          0.4000
   1405 H25         12.603286    29.329287    24.035034 hoy    1 silica          0.4000
   1406 Si217        4.754322    37.625961    23.848464 sc4    1 silica          1.1000
   1407 O451         5.160655    36.657324    25.128530 oc24   1 silica         -0.6750
   1408 H26          5.904380    36.133569    24.906091 hoy    1 silica          0.4000
   1409 Si218        6.974135    34.053405     2.752424 sc4    1 silica          1.1000
   1410 O452         7.047709    34.486039     1.125701 oc24   1 silica         -0.6750
   1411 O453         5.444753    33.886807     3.232467 oc23   1 silica         -0.5500
   1412 Si219        9.557465    22.402111    22.830564 sc4    1 silica          1.1000
   1413 O454         9.394755    23.255319    24.209736 oc24   1 silica         -0.6750
   1414 O455         2.889074    40.259709    24.388070 oc24   1 silica         -0.6750
   1415 H27          2.947025    39.838434    25.223695 hoy    1 silica          0.4000
   1416 O456        21.422871    24.305745    20.777176 oc23   1 silica         -0.5500
   1417 O457        19.366414    23.162511    21.135000 oc23   1 silica         -0.5500
   1418 O458        19.981497    25.426562    19.390354 oc23   1 silica         -0.5500
   1419 Si220       21.287090    25.416121    21.978367 sc4    1 silica          1.1000
   1420 O459         2.327840    25.107246    23.062040 oc23   1 silica         -0.5500
   1421 O460        20.770135    26.756653    21.196002 oc23   1 silica         -0.5500
   1422 Si221       20.406576    27.033294    19.724689 sc4    1 silica          1.1000
   1423 O461        19.171654    28.069260    19.618430 oc23   1 silica         -0.5500
   1424 Si222       19.277238    22.229878    22.489123 sc4    1 silica          1.1000
   1425 Si223        3.864349    25.014853    22.940080 sc4    1 silica          1.1000
   1426 O462         4.544927    26.188040    23.857978 oc24   1 silica         -0.6750
   1427 H28          4.072627    26.992110    23.693547 hoy    1 silica          0.4000
   1428 O463        19.761620    23.119255    23.807954 oc24   1 silica         -0.6750
   1429 H29         12.152539    22.157556    23.722548 hoy    1 silica          0.4000
   1430 O464        17.128459    22.188693    25.516738 oc24   1 silica         -0.6750
   1431 H30         16.971821    21.398086    26.002142 hoy    1 silica          0.4000
   1432 H31         17.046148    24.953903    23.998038 hoy    1 silica          0.4000
   1433 H32          7.323926    25.025386     4.434470 hoy    1 silica          0.4000
   1434 O465         4.165122    22.919015     3.273072 oc24   1 silica         -0.6750
   1435 H33          3.404152    22.389466     3.415699 hoy    1 silica          0.4000
   1436 H34         17.438006    29.542078    24.958385 hoy    1 silica          0.4000
   1437 H35         17.319413    24.894799     2.239058 hoy    1 silica          0.4000
   1438 H36         13.004822    31.204028    25.880742 hoy    1 silica          0.4000
   1439 H37         19.135919    23.798870    24.023505 hoy    1 silica          0.4000
   1440 H38          3.599829    32.417966    24.085769 hoy    1 silica          0.4000
   1441 H39          8.236739    21.441331     1.848808 hoy    1 silica          0.4000
   1442 H40          7.302595    35.382647     1.070527 hoy    1 silica          0.4000
   1443 H41          9.540592    22.665966    24.929984 hoy    1 silica          0.4000
   1444 Si1         35.541590    20.117964    20.465126 sc4    1 silica          1.1000
   1445 Si2         34.497115     7.083793    17.966587 sc4    1 silica          1.1000
   1446 Si3         38.869858    13.879633    23.694329 sc4    1 silica          1.1000
   1447 Si4         37.192480    14.503142    18.321248 sc4    1 silica          1.1000
   1448 Si5         28.612730     2.309800    19.393022 sc4    1 silica          1.1000
   1449 Si6         38.079043     2.103481    15.715624 sc4    1 silica          1.1000
   1450 Si7         33.835509     2.592449    23.401544 sc4    1 silica          1.1000
   1451 O1          28.590032    19.704680    18.089962 oc23   1 silica         -0.5500
   1452 O2          34.533037     5.942880    12.093327 oc23   1 silica         -0.5500
   1453 O3          32.434893    12.358499     8.561155 oc23   1 silica         -0.5500
   1454 O4          28.265418     3.183742    13.404367 oc23   1 silica         -0.5500
   1455 O5          36.652504    18.019476    14.178280 oc23   1 silica         -0.5500
   1456 O6          22.086049    18.892448    22.266808 oc23   1 silica         -0.5500
   1457 O7          23.761452     5.153186    18.558838 oc23   1 silica         -0.5500
   1458 O8          28.667517     8.035900    10.787647 oc23   1 silica         -0.5500
   1459 O9          38.222766    17.720129    16.218448 oc23   1 silica         -0.5500
   1460 O10         36.456414    14.366541    10.609879 oc23   1 silica         -0.5500
   1461 O11         29.304652     1.918690     4.281601 oc23   1 silica         -0.5500
   1462 O12         32.231666    10.178638    21.741368 oc23   1 silica         -0.5500
   1463 O13         39.324527     2.326108    14.603339 oc23   1 silica         -0.5500
   1464 O14         20.526795     0.355476    13.791087 oc23   1 silica         -0.5500
   1465 O15         22.151239    13.327469     9.110109 oc23   1 silica         -0.5500
   1466 Si8         27.662391     7.783662    12.054846 sc4    1 silica          1.1000
   1467 Si9         33.604627     4.608148    12.272511 sc4    1 silica          1.1000
   1468 Si10        34.862971     7.010375     4.705102 sc4    1 silica          1.1000
   1469 Si11        34.717999     7.565729    11.817988 sc4    1 silica          1.1000
   1470 Si12        37.941167     1.110054    18.910501 sc4    1 silica          1.1000
   1471 Si13        37.549710     6.164334     5.600619 sc4    1 silica          1.1000
   1472 Si14        22.577204     5.014886    14.427059 sc4    1 silica          1.1000
   1473 Si15        31.371954     8.844486     7.964877 sc4    1 silica          1.1000
   1474 O16         33.345767     2.614910    21.795878 oc23   1 silica         -0.5500
   1475 O17         38.476830     4.527356     8.736413 oc23   1 silica         -0.5500
   1476 O18         30.292847    17.234961    12.614707 oc23   1 silica         -0.5500
   1477 O19         38.440343     4.520188    21.232831 oc23   1 silica         -0.5500
   1478 O20         35.497890     8.764108     8.276244 oc23   1 silica         -0.5500
   1479 O21         37.721208     3.829588    23.757999 oc24   1 silica         -0.6750
   1480 O22          0.082079     2.537622    18.345022 oc23   1 silica         -0.5500
   1481 O23         37.434974     2.503524    19.718338 oc23   1 silica         -0.5500
   1482 O24         22.982084     3.707914    13.645662 oc23   1 silica         -0.5500
   1483 O25         30.773925    10.420311     7.935604 oc23   1 silica         -0.5500
   1484 O26         30.172710     2.193985     8.031418 oc23   1 silica         -0.5500
   1485 O27         32.966322     8.785404     7.991270 oc23   1 silica         -0.5500
   1486 O28         28.228975     2.404932     6.528692 oc23   1 silica         -0.5500
   1487 O29         20.160495    17.000456    17.316498 oc23   1 silica         -0.5500
   1488 Si16        37.506534    13.129258    13.822745 sc4    1 silica          1.1000
   1489 Si17        21.238753     7.984234     5.986915 sc4    1 silica          1.1000
   1490 Si18        33.879010    17.533189    20.145264 sc4    1 silica          1.1000
   1491 Si19        34.640031    11.838983    13.447097 sc4    1 silica          1.1000
   1492 Si20        20.869994    11.834508    18.064843 sc4    1 silica          1.1000
   1493 Si21        23.218693    12.862933     8.006521 sc4    1 silica          1.1000
   1494 Si22        24.440431    19.340783    23.868555 sc4    1 silica          1.1000
   1495 Si23        31.425775     1.351578    18.726407 sc4    1 silica          1.1000
   1496 O30         23.507628    14.497798    18.053890 oc23   1 silica         -0.5500
   1497 O31         34.338316    10.900921     7.154773 oc23   1 silica         -0.5500
   1498 O32         39.934893     6.466166     9.176646 oc23   1 silica         -0.5500
   1499 O33         22.728345    16.262967    15.429473 oc23   1 silica         -0.5500
   1500 O34         37.309072     6.867891     8.896755 oc23   1 silica         -0.5500
   1501 O35         37.178089    16.897455     6.381332 oc23   1 silica         -0.5500
   1502 O36         25.708412    19.178825     5.949166 oc23   1 silica         -0.5500
   1503 O37         19.727231    20.239318     5.546841 oc23   1 silica         -0.5500
   1504 O38         21.003920     4.984931    14.619841 oc23   1 silica         -0.5500
   1505 O39         34.707236    16.574037    16.579932 oc23   1 silica         -0.5500
   1506 O40         34.804435     5.537427    18.138877 oc23   1 silica         -0.5500
   1507 O41         39.202496     6.589053    14.253494 oc23   1 silica         -0.5500
   1508 O42         28.220346    14.473271    16.408846 oc23   1 silica         -0.5500
   1509 O43         26.224764     1.926335    12.126165 oc23   1 silica         -0.5500
   1510 O44         30.356506     4.295295    19.284662 oc23   1 silica         -0.5500
   1511 Si24        33.777497    18.189761    24.459932 sc4    1 silica          1.1000
   1512 Si25        36.495236     9.195415    18.594675 sc4    1 silica          1.1000
   1513 Si26        20.455034    19.262353     6.555936 sc4    1 silica          1.1000
   1514 Si27        34.927555     9.221393    22.060759 sc4    1 silica          1.1000
   1515 Si28        34.033091     4.146389    18.130544 sc4    1 silica          1.1000
   1516 Si29        21.939909    14.635684    18.335720 sc4    1 silica          1.1000
   1517 Si30        35.713937     1.043634     4.848544 sc4    1 silica          1.1000
   1518 Si31        34.586897    14.052032     4.248290 sc4    1 silica          1.1000
   1519 O45         34.377098    12.826224     5.280520 oc23   1 silica         -0.5500
   1520 O46         29.150570     7.873610    18.214965 oc23   1 silica         -0.5500
   1521 O47         31.369455     8.513693     4.052769 oc24   1 silica         -0.6750
   1522 O48         20.065835     4.084622    23.041405 oc23   1 silica         -0.5500
   1523 O49         33.178863     5.969397    22.814015 oc23   1 silica         -0.5500
   1524 O50         19.969483    14.289353    22.594698 oc23   1 silica         -0.5500
   1525 O51         25.982312    16.269637    10.111668 oc23   1 silica         -0.5500
   1526 O52         36.267701    10.354972    22.180805 oc23   1 silica         -0.5500
   1527 O53         25.786342    14.294616    16.855436 oc23   1 silica         -0.5500
   1528 O54         28.655221    18.729537    13.516693 oc23   1 silica         -0.5500
   1529 O55         28.910494    12.507861    22.834766 oc23   1 silica         -0.5500
   1530 O56         30.261443    17.194151    21.099139 oc23   1 silica         -0.5500
   1531 O57         21.606423    16.052574    19.096200 oc23   1 silica         -0.5500
   1532 O58         33.993746    11.319427    12.018915 oc23   1 silica         -0.5500
   1533 Si32        30.184885    16.733634    11.100215 sc4    1 silica          1.1000
   1534 Si33        33.321980    11.213775    23.970825 sc4    1 silica          1.1000
   1535 Si34        36.969460     8.698149    13.301224 sc4    1 silica          1.1000
   1536 Si35        27.618083    11.048046     9.992512 sc4    1 silica          1.1000
   1537 Si36        28.248364    10.826220     4.990616 sc4    1 silica          1.1000
   1538 Si37        33.379629    13.331902     9.453715 sc4    1 silica          1.1000
   1539 Si38        34.206769     9.689864     8.205357 sc4    1 silica          1.1000
   1540 Si39        27.540114    15.666346    10.152942 sc4    1 silica          1.1000
   1541 O59         32.236828     2.801788     6.815669 oc23   1 silica         -0.5500
   1542 O60         33.989593     9.211905    20.628540 oc23   1 silica         -0.5500
   1543 O61         22.888876    11.374779     7.563566 oc23   1 silica         -0.5500
   1544 O62         28.048364    14.989596     8.814213 oc23   1 silica         -0.5500
   1545 O63         21.988770    13.763292    15.299819 oc23   1 silica         -0.5500
   1546 O64         39.282923    10.367567    11.557381 oc23   1 silica         -0.5500
   1547 O65         21.893304    14.156150    21.100957 oc23   1 silica         -0.5500
   1548 O66         38.292913    16.933543    21.690327 oc23   1 silica         -0.5500
   1549 O67         37.291172     5.325958    13.615208 oc23   1 silica         -0.5500
   1550 O68         34.779519    12.560853     9.788616 oc23   1 silica         -0.5500
   1551 O69         37.656987    13.047637    18.032925 oc23   1 silica         -0.5500
   1552 O70         37.192925    14.529452    13.156035 oc23   1 silica         -0.5500
   1553 O71         36.545549    14.603160     7.184614 oc23   1 silica         -0.5500
   1554 O72         33.716984    14.756333     8.675746 oc23   1 silica         -0.5500
   1555 O73         33.446352     9.988962    16.778474 oc23   1 silica         -0.5500
   1556 Si40        19.690383    11.166542    20.735508 sc4    1 silica          1.1000
   1557 Si41        22.592523    12.801241    14.321910 sc4    1 silica          1.1000
   1558 Si42        20.685755    15.131708    21.409087 sc4    1 silica          1.1000
   1559 Si43        35.220564    17.729534    11.286835 sc4    1 silica          1.1000
   1560 Si44        33.171041     9.930708    15.235936 sc4    1 silica          1.1000
   1561 Si45        38.293197    17.487779     7.418520 sc4    1 silica          1.1000
   1562 Si46        19.972586     5.882016    15.356431 sc4    1 silica          1.1000
   1563 Si47        38.312627    12.381991    16.709209 sc4    1 silica          1.1000
   1564 O74         28.869697    10.412522    18.792249 oc23   1 silica         -0.5500
   1565 O75         36.246212    12.084882    13.515867 oc23   1 silica         -0.5500
   1566 O76         26.244519     5.331468     9.503794 oc23   1 silica         -0.5500
   1567 O77         33.179790    14.977995    17.719177 oc23   1 silica         -0.5500
   1568 O78         20.965338     2.587842    12.580499 oc23   1 silica         -0.5500
   1569 O79         35.691440    14.669036    17.936275 oc23   1 silica         -0.5500
   1570 O80         23.016514    12.925744     4.265950 oc23   1 silica         -0.5500
   1571 O81         33.173783    14.754138     4.181928 oc23   1 silica         -0.5500
   1572 O82         24.323237     7.049943    16.769244 oc23   1 silica         -0.5500
   1573 O83         25.201495     4.796830     7.251873 oc23   1 silica         -0.5500
   1574 O84         32.239649    13.634107    15.765248 oc23   1 silica         -0.5500
   1575 O85         30.423589    12.602284    11.542178 oc23   1 silica         -0.5500
   1576 O86         37.929275    13.317276    15.453530 oc23   1 silica         -0.5500
   1577 O87         32.332412    17.720005    19.872001 oc23   1 silica         -0.5500
   1578 O88         37.574826     8.946533    17.437488 oc23   1 silica         -0.5500
   1579 O89         21.358206    16.504763    21.809996 oc23   1 silica         -0.5500
   1580 Si48        27.261459    15.695721    21.851263 sc4    1 silica          1.1000
   1581 Si49        23.490697     1.380965    16.073024 sc4    1 silica          1.1000
   1582 Si50        30.710509     4.165572    20.864123 sc4    1 silica          1.1000
   1583 Si51        35.552838     1.028943    14.236969 sc4    1 silica          1.1000
   1584 Si52        38.817126    16.828803    17.343057 sc4    1 silica          1.1000
   1585 Si53        31.146716    18.408024    20.643059 sc4    1 silica          1.1000
   1586 Si54        33.251792    15.927408    22.660517 sc4    1 silica          1.1000
   1587 Si55        30.222821    17.629103     4.626983 sc4    1 silica          1.1000
   1588 O90         22.593975    17.688434    17.621936 oc23   1 silica         -0.5500
   1589 O91         25.599320    15.786457    19.016146 oc23   1 silica         -0.5500
   1590 O92         37.038238     1.321034    14.741021 oc23   1 silica         -0.5500
   1591 O93         28.829462     6.505070     8.665441 oc23   1 silica         -0.5500
   1592 O94         35.484787     2.376941    23.448216 oc23   1 silica         -0.5500
   1593 O95         26.394247     6.914419    11.542910 oc23   1 silica         -0.5500
   1594 O96         39.361658     5.851067    11.770961 oc23   1 silica         -0.5500
   1595 O97         19.650069    15.414108    20.256881 oc23   1 silica         -0.5500
   1596 O98         37.722902    18.148702    23.775493 oc23   1 silica         -0.5500
   1597 O99         32.716372     5.757927    15.334074 oc23   1 silica         -0.5500
   1598 O100        31.711606    10.477487    10.757783 oc23   1 silica         -0.5500
   1599 O101        21.485600    12.349384    13.231817 oc23   1 silica         -0.5500
   1600 O102        33.242721    16.762719    23.992165 oc23   1 silica         -0.5500
   1601 O103        28.743028    16.949287     4.777532 oc23   1 silica         -0.5500
   1602 O104        20.714098    12.892184     5.491410 oc23   1 silica         -0.5500
   1603 O105        24.883814     8.553012    23.750610 oc24   1 silica         -0.6750
   1604 Si56        22.070891    13.650680     5.334984 sc4    1 silica          1.1000
   1605 Si57        39.486109    15.738479     9.743223 sc4    1 silica          1.1000
   1606 Si58        38.043607     9.581810    16.161766 sc4    1 silica          1.1000
   1607 Si59        31.144861    12.038436     7.636892 sc4    1 silica          1.1000
   1608 Si60        31.004485    12.161655     4.664969 sc4    1 silica          1.1000
   1609 Si61        21.059675    20.099485     9.593679 sc4    1 silica          1.1000
   1610 Si62        23.070698     6.486302    11.786684 sc4    1 silica          1.1000
   1611 Si63        38.569634     6.086027     8.428149 sc4    1 silica          1.1000
   1612 O106        22.391836     9.355881     9.177380 oc23   1 silica         -0.5500
   1613 O107        35.231086    10.381986     4.757819 oc23   1 silica         -0.5500
   1614 O108        29.787181    11.198776     4.585836 oc23   1 silica         -0.5500
   1615 O109        28.239617     1.197873    22.553407 oc23   1 silica         -0.5500
   1616 O110        36.988086     2.035214     4.893398 oc23   1 silica         -0.5500
   1617 O111        28.569633     6.865571     6.046053 oc23   1 silica         -0.5500
   1618 O112        21.942932    17.712921     3.929466 oc23   1 silica         -0.5500
   1619 O113        34.107030    10.240164     9.748060 oc23   1 silica         -0.5500
   1620 O114        35.047936    13.503555     2.754573 oc24   1 silica         -0.6750
   1621 O115        27.156399     6.049070    20.760366 oc23   1 silica         -0.5500
   1622 O116        36.897459     5.712725    16.154376 oc23   1 silica         -0.5500
   1623 O117        31.623276    11.948116     6.043810 oc23   1 silica         -0.5500
   1624 O118        21.270642    15.063468    16.986082 oc23   1 silica         -0.5500
   1625 O119        35.019675    18.256343    23.515877 oc23   1 silica         -0.5500
   1626 Si64        37.044968    15.345911    11.724171 sc4    1 silica          1.1000
   1627 Si65        20.042574    20.146304    14.927074 sc4    1 silica          1.1000
   1628 Si66        31.238955     4.167768    17.987551 sc4    1 silica          1.1000
   1629 Si67        33.296662    15.869694     7.604621 sc4    1 silica          1.1000
   1630 Si68        20.941633     1.413005    17.170294 sc4    1 silica          1.1000
   1631 Si69        36.803121    19.329430     9.376958 sc4    1 silica          1.1000
   1632 Si70        31.386790    19.730741    23.228451 sc4    1 silica          1.1000
   1633 O120        37.218807     9.012825    14.877403 oc23   1 silica         -0.5500
   1634 O121        25.529495     1.568545    21.796752 oc23   1 silica         -0.5500
   1635 O122        35.991583    16.503355    11.939899 oc23   1 silica         -0.5500
   1636 O123        21.392433    19.318617    14.941475 oc23   1 silica         -0.5500
   1637 O124        20.719459     7.253581    15.665080 oc23   1 silica         -0.5500
   1638 O125        23.747421    18.665276    15.649381 oc23   1 silica         -0.5500
   1639 O126        26.350064    17.623386     3.833924 oc23   1 silica         -0.5500
   1640 O127        28.674532    16.714450    10.585563 oc23   1 silica         -0.5500
   1641 O128        38.978546    17.021918    13.611195 oc23   1 silica         -0.5500
   1642 O129        24.872928    12.992035     8.102889 oc23   1 silica         -0.5500
   1643 O130        35.578882    20.328770    14.513299 oc23   1 silica         -0.5500
   1644 O131        36.152038    18.150152    10.127986 oc23   1 silica         -0.5500
   1645 O132        21.909026    19.093724     5.937269 oc23   1 silica         -0.5500
   1646 O133        33.298395     8.421093    14.690948 oc23   1 silica         -0.5500
   1647 O134        38.270902    11.931708    21.066962 oc23   1 silica         -0.5500
   1648 O135        20.156866    17.310325    23.593192 oc23   1 silica         -0.5500
   1649 Si71        22.754227    16.348730     4.240665 sc4    1 silica          1.1000
   1650 Si72        25.232133     8.336157    16.350156 sc4    1 silica          1.1000
   1651 Si73        37.727136     3.434753     4.487768 sc4    1 silica          1.1000
   1652 Si74        38.756413    16.893976    23.269505 sc4    1 silica          1.1000
   1653 Si75        24.283567     4.234183    19.710194 sc4    1 silica          1.1000
   1654 Si76        38.688563     4.721382    22.841683 sc4    1 silica          1.1000
   1655 Si77        19.828824     1.665529    13.282196 sc4    1 silica          1.1000
   1656 Si78        24.371897     1.291327    18.981136 sc4    1 silica          1.1000
   1657 O136        37.652917     9.197238     4.809614 oc23   1 silica         -0.5500
   1658 O137        22.229005    13.109703    23.346301 oc24   1 silica         -0.6750
   1659 O138        21.124098     2.017067     5.554585 oc23   1 silica         -0.5500
   1660 O139        28.409220     1.037304     8.830252 oc23   1 silica         -0.5500
   1661 O140        36.568005    12.101496     6.359495 oc23   1 silica         -0.5500
   1662 O141        28.250339     3.920017    19.765106 oc23   1 silica         -0.5500
   1663 O142        32.717177    19.370448    24.034211 oc23   1 silica         -0.5500
   1664 O143        32.267102     7.204815    20.700354 oc23   1 silica         -0.5500
   1665 O144        34.057683    14.574447    22.676971 oc23   1 silica         -0.5500
   1666 O145        39.873212    12.108954    16.957752 oc23   1 silica         -0.5500
   1667 O146        39.255469     0.299059    19.605800 oc23   1 silica         -0.5500
   1668 O147        21.180337    10.511750    23.812180 oc24   1 silica         -0.6750
   1669 O148        22.275690     0.314291     9.687506 oc23   1 silica         -0.5500
   1670 O149        30.516514     6.527278    14.682190 oc23   1 silica         -0.5500
   1671 O150        26.744582     4.461562    11.741546 oc23   1 silica         -0.5500
   1672 Si79        22.978093    19.618295    14.668332 sc4    1 silica          1.1000
   1673 Si80        26.003114     9.640394     7.699478 sc4    1 silica          1.1000
   1674 Si81        20.668865     8.703245    15.051771 sc4    1 silica          1.1000
   1675 Si82        22.920201     9.774220     7.793932 sc4    1 silica          1.1000
   1676 Si83        26.387355     4.467860     8.227851 sc4    1 silica          1.1000
   1677 Si84        33.161285     1.474042     6.564789 sc4    1 silica          1.1000
   1678 Si85        22.538904     2.868419    12.349897 sc4    1 silica          1.1000
   1679 O151        22.055330     6.907831    20.287736 oc23   1 silica         -0.5500
   1680 O152        37.360110     9.494886     9.957100 oc23   1 silica         -0.5500
   1681 O153        30.863464     3.950225    14.300757 oc23   1 silica         -0.5500
   1682 O154        20.181136     8.019120    10.995467 oc23   1 silica         -0.5500
   1683 O155        22.824857     2.436901     8.630640 oc23   1 silica         -0.5500
   1684 O156        34.319004    12.239962    23.270001 oc23   1 silica         -0.5500
   1685 O157        30.151102     1.735594    19.555020 oc23   1 silica         -0.5500
   1686 O158        38.641393     1.957897     9.308543 oc23   1 silica         -0.5500
   1687 O159        27.876178    18.991677    15.871696 oc23   1 silica         -0.5500
   1688 O160        38.506905     6.424195     6.843811 oc23   1 silica         -0.5500
   1689 O161        31.708097    19.284601    21.785254 oc23   1 silica         -0.5500
   1690 O162        35.532882     7.618390    10.459143 oc23   1 silica         -0.5500
   1691 O163        20.267491    12.179595     8.002384 oc23   1 silica         -0.5500
   1692 O164        24.214347     2.704895    15.682833 oc23   1 silica         -0.5500
   1693 O165        33.416800     4.185086    13.881788 oc23   1 silica         -0.5500
   1694 O166        21.663390     5.996866    11.060789 oc23   1 silica         -0.5500
   1695 Si86        26.087816     9.527658    13.765567 sc4    1 silica          1.1000
   1696 Si87        33.772698     7.012654    15.149767 sc4    1 silica          1.1000
   1697 Si88        27.198326     5.056650    19.496000 sc4    1 silica          1.1000
   1698 Si89        37.930887     7.930497    20.603162 sc4    1 silica          1.1000
   1699 Si90        30.299741    10.306331    14.416931 sc4    1 silica          1.1000
   1700 Si91        21.640530    15.202805    15.560591 sc4    1 silica          1.1000
   1701 Si92        29.979159     0.922036     8.921211 sc4    1 silica          1.1000
   1702 Si93        27.817763    11.756824    14.508318 sc4    1 silica          1.1000
   1703 O167        26.762806     8.465011     7.011497 oc23   1 silica         -0.5500
   1704 O168        24.110213    10.412397    10.790621 oc23   1 silica         -0.5500
   1705 O169        28.354392     6.916200    15.949058 oc23   1 silica         -0.5500
   1706 O170        26.064754    14.293870    13.165337 oc23   1 silica         -0.5500
   1707 O171        26.645288     8.248984    17.207641 oc23   1 silica         -0.5500
   1708 O172        33.730529    17.375374    10.684645 oc23   1 silica         -0.5500
   1709 O173        32.743826    17.110914     8.320860 oc23   1 silica         -0.5500
   1710 O174        24.746221    12.643469    11.763242 oc23   1 silica         -0.5500
   1711 O175        37.422315    15.093217    19.746361 oc23   1 silica         -0.5500
   1712 O176        37.354103     9.218410    19.807883 oc23   1 silica         -0.5500
   1713 O177        36.836825     6.851981    20.209241 oc23   1 silica         -0.5500
   1714 O178        23.659214    13.727453    13.755321 oc23   1 silica         -0.5500
   1715 O179        35.548525     8.245629    12.988537 oc23   1 silica         -0.5500
   1716 O180        33.323996     3.948705    24.189386 oc23   1 silica         -0.5500
   1717 O181        22.116043     1.824975    16.288587 oc23   1 silica         -0.5500
   1718 O182        30.377107    18.116758    17.321620 oc23   1 silica         -0.5500
   1719 Si94        36.479716     8.230796     9.401340 sc4    1 silica          1.1000
   1720 Si95        27.111892    13.419779    16.776680 sc4    1 silica          1.1000
   1721 Si96        24.391128     1.429963    22.951838 sc4    1 silica          1.1000
   1722 Si97        38.504687    16.179895    20.226947 sc4    1 silica          1.1000
   1723 Si98        37.418889     4.098506    20.075951 sc4    1 silica          1.1000
   1724 Si99        21.728860    17.399860    22.993954 sc4    1 silica          1.1000
   1725 Si100       35.728088     6.286144    21.128319 sc4    1 silica          1.1000
   1726 Si101       33.889169    10.944757    17.979383 sc4    1 silica          1.1000
   1727 O183        32.907020    10.841798    19.293987 oc23   1 silica         -0.5500
   1728 O184        19.661639     8.557611     5.884339 oc23   1 silica         -0.5500
   1729 O185        36.128775    41.306296    23.886308 oc23   1 silica         -0.5500
   1730 O186        23.759960     2.732638    19.484219 oc23   1 silica         -0.5500
   1731 O187        35.146466     6.508841    14.471490 oc23   1 silica         -0.5500
   1732 O188        30.095750    16.205168    15.522724 oc23   1 silica         -0.5500
   1733 O189        31.738860    10.637497    14.877167 oc23   1 silica         -0.5500
   1734 O190        34.342387     6.020026    20.550090 oc23   1 silica         -0.5500
   1735 O191        31.058708     5.985596     4.832231 oc23   1 silica         -0.5500
   1736 O192        38.081422    15.410255    17.368223 oc23   1 silica         -0.5500
   1737 O193        24.303403    19.210480    22.246364 oc23   1 silica         -0.5500
   1738 O194        35.542237    10.558238    18.298184 oc23   1 silica         -0.5500
   1739 O195        32.716048     1.217247    19.681132 oc23   1 silica         -0.5500
   1740 O196        22.265410     4.814894     8.453855 oc23   1 silica         -0.5500
   1741 O197        35.615930     7.931532    18.676995 oc23   1 silica         -0.5500
   1742 Si102       39.125977     9.684105     5.199640 sc4    1 silica          1.1000
   1743 Si103       37.280126    13.194887     7.262661 sc4    1 silica          1.1000
   1744 Si104       25.951833     5.510081    11.037182 sc4    1 silica          1.1000
   1745 Si105       20.255757    12.926821    12.325203 sc4    1 silica          1.1000
   1746 Si106       39.810685    12.083349     6.828158 sc4    1 silica          1.1000
   1747 Si107       29.913689     3.202266    13.128697 sc4    1 silica          1.1000
   1748 Si108       30.346587    11.003093    11.440475 sc4    1 silica          1.1000
   1749 Si109       20.282648     9.286773    11.991955 sc4    1 silica          1.1000
   1750 O198        30.786101    15.191037    10.936659 oc23   1 silica         -0.5500
   1751 O199        20.396700    12.460421    10.761206 oc23   1 silica         -0.5500
   1752 O200        29.653416     8.946450    15.000872 oc23   1 silica         -0.5500
   1753 O201        38.509243    16.349518     8.549632 oc23   1 silica         -0.5500
   1754 O202        26.868752     2.513036     4.279429 oc23   1 silica         -0.5500
   1755 O203        27.510887    11.728401    20.627832 oc23   1 silica         -0.5500
   1756 O204        26.186505    12.292332    22.693095 oc23   1 silica         -0.5500
   1757 O205        27.243641    14.167751    21.337059 oc23   1 silica         -0.5500
   1758 O206        22.101611     9.363836    15.301353 oc23   1 silica         -0.5500
   1759 O207        34.855796     5.617017     3.829440 oc24   1 silica         -0.6750
   1760 O208        35.471081     7.534945    22.244215 oc23   1 silica         -0.5500
   1761 O209        34.565047     0.990382    10.244099 oc23   1 silica         -0.5500
   1762 O210        32.728183    13.656439    10.916640 oc23   1 silica         -0.5500
   1763 O211        19.618018    14.328216     9.160030 oc23   1 silica         -0.5500
   1764 O212        39.655433     9.514234    16.004301 oc23   1 silica         -0.5500
   1765 O213        37.131888    12.695299     8.739789 oc23   1 silica         -0.5500
   1766 Si110       22.932538    10.399885    16.172035 sc4    1 silica          1.1000
   1767 Si111       32.779505    14.195427    14.382582 sc4    1 silica          1.1000
   1768 Si112       37.935885     4.840416    16.999703 sc4    1 silica          1.1000
   1769 Si113       24.619792    16.560945    11.002643 sc4    1 silica          1.1000
   1770 Si114       36.227466     5.428460    14.772607 sc4    1 silica          1.1000
   1771 Si115       24.628582    13.989386    12.587629 sc4    1 silica          1.1000
   1772 Si116       20.773883     9.306618    22.752163 sc4    1 silica          1.1000
   1773 Si117       27.481578    18.301420    14.504375 sc4    1 silica          1.1000
   1774 O214        27.111851     9.097677    12.709964 oc23   1 silica         -0.5500
   1775 O215        30.814722    18.540897    14.800253 oc23   1 silica         -0.5500
   1776 O216        20.720345    12.073032    21.592993 oc23   1 silica         -0.5500
   1777 O217        25.005967    10.456605    13.049753 oc23   1 silica         -0.5500
   1778 O218        37.825948    18.748886     8.249140 oc23   1 silica         -0.5500
   1779 O219        33.906021    16.966151    21.614311 oc23   1 silica         -0.5500
   1780 O220        26.609851    11.063832    11.178522 oc23   1 silica         -0.5500
   1781 O221        23.517264     7.989661    11.330864 oc23   1 silica         -0.5500
   1782 O222        24.284011     9.613174    16.707178 oc23   1 silica         -0.5500
   1783 O223        34.638500    16.314218     6.855377 oc23   1 silica         -0.5500
   1784 O224        38.814103    12.519545    13.132522 oc23   1 silica         -0.5500
   1785 O225        23.940166     0.843887    17.494241 oc23   1 silica         -0.5500
   1786 O226        21.311319    13.251896    18.715122 oc23   1 silica         -0.5500
   1787 O227        24.206769     4.717073    21.313215 oc23   1 silica         -0.5500
   1788 O228        28.860102     4.383546     4.757063 oc23   1 silica         -0.5500
   1789 O229        33.784108     1.076469     7.949720 oc23   1 silica         -0.5500
   1790 Si118       25.361746     8.744759    22.234796 sc4    1 silica          1.1000
   1791 Si119       24.144885     5.454356    16.964363 sc4    1 silica          1.1000
   1792 Si120       24.497559    12.422884     4.313307 sc4    1 silica          1.1000
   1793 Si121       38.175678    18.025898    14.620786 sc4    1 silica          1.1000
   1794 Si122       36.269232     9.447280     3.967097 sc4    1 silica          1.1000
   1795 Si123       23.500816     1.052517     8.984423 sc4    1 silica          1.1000
   1796 Si124       23.490738    17.281198    16.339556 sc4    1 silica          1.1000
   1797 Si125       20.059224     3.105501     5.873833 sc4    1 silica          1.1000
   1798 O230        39.626162    17.870155     6.769304 oc23   1 silica         -0.5500
   1799 O231        38.860102    19.398622    14.428193 oc23   1 silica         -0.5500
   1800 O232        24.079090    11.309233    24.073542 oc24   1 silica         -0.6750
   1801 O233        24.885789     0.191879    23.920162 oc23   1 silica         -0.5500
   1802 O234        23.245623    11.603525    15.152388 oc23   1 silica         -0.5500
   1803 O235        20.421251     3.291531     9.481706 oc23   1 silica         -0.5500
   1804 O236        37.710849     4.908779    18.674729 oc23   1 silica         -0.5500
   1805 O237        28.550806    14.894261    13.806054 oc23   1 silica         -0.5500
   1806 O238        21.417590     6.743387     6.976275 oc23   1 silica         -0.5500
   1807 O239        20.065875     0.467200    16.206030 oc23   1 silica         -0.5500
   1808 O240        34.525335    16.504225    19.216435 oc23   1 silica         -0.5500
   1809 O241        34.490988     3.126085    19.297339 oc23   1 silica         -0.5500
   1810 O242        20.066641     0.100817    22.188737 oc23   1 silica         -0.5500
   1811 O243        32.286011     0.189291     6.071148 oc23   1 silica         -0.5500
   1812 O244        21.037583    18.760238    10.473827 oc23   1 silica         -0.5500
   1813 Si126       21.615292    17.326940    10.794304 sc4    1 silica          1.1000
   1814 Si127       30.159770    20.336643     6.181798 sc4    1 silica          1.1000
   1815 Si128       24.903527    15.195720    17.785185 sc4    1 silica          1.1000
   1816 Si129       38.408656     6.264889    13.022887 sc4    1 silica          1.1000
   1817 Si130       22.348054    19.135612     4.388686 sc4    1 silica          1.1000
   1818 Si131       30.002057     5.153559     3.879984 sc4    1 silica          1.1000
   1819 Si132       27.018441     0.937366    21.458687 sc4    1 silica          1.1000
   1820 Si133       38.965767     0.782497    10.342419 sc4    1 silica          1.1000
   1821 O245        22.178289     9.045639     6.467217 oc23   1 silica         -0.5500
   1822 O246        24.492277     2.911943    23.494347 oc23   1 silica         -0.5500
   1823 O247        30.413752     2.699799    21.569125 oc23   1 silica         -0.5500
   1824 O248        22.555153     3.695278    10.936636 oc23   1 silica         -0.5500
   1825 O249        27.582243    16.779707    14.898910 oc23   1 silica         -0.5500
   1826 O250        22.834452     1.004017    22.439334 oc23   1 silica         -0.5500
   1827 O251        19.288163     2.665436     7.202248 oc23   1 silica         -0.5500
   1828 O252        23.669090     0.264894    14.985669 oc23   1 silica         -0.5500
   1829 O253        38.228449     6.640885     4.200909 oc24   1 silica         -0.6750
   1830 O254        34.301871    10.686428    14.525764 oc23   1 silica         -0.5500
   1831 O255        34.024424    13.216721    13.917979 oc23   1 silica         -0.5500
   1832 O256        29.978636     5.326911    21.467776 oc23   1 silica         -0.5500
   1833 O257        34.398304     7.450797    16.477686 oc23   1 silica         -0.5500
   1834 O258        37.573415    11.084714    16.361937 oc23   1 silica         -0.5500
   1835 O259        20.490431    15.619279    14.681694 oc23   1 silica         -0.5500
   1836 O260        30.726796     0.648116    23.323897 oc23   1 silica         -0.5500
   1837 Si134       39.380889     3.199030     8.556573 sc4    1 silica          1.1000
   1838 Si135       28.598377    15.551827    15.213980 sc4    1 silica          1.1000
   1839 Si136       36.984940    11.887997    22.028629 sc4    1 silica          1.1000
   1840 Si137       34.181168     3.468827    15.164404 sc4    1 silica          1.1000
   1841 Si138       21.985221     5.322809     6.959300 sc4    1 silica          1.1000
   1842 Si139       31.049435     0.659125    11.907085 sc4    1 silica          1.1000
   1843 Si140       21.255362    17.360293    18.400618 sc4    1 silica          1.1000
   1844 Si141       20.175290    16.003395    13.154147 sc4    1 silica          1.1000
   1845 O261        22.945117     5.116104    15.995377 oc23   1 silica         -0.5500
   1846 O262        22.965033     6.249684    13.426912 oc23   1 silica         -0.5500
   1847 O263        23.545081    19.198422    13.241543 oc23   1 silica         -0.5500
   1848 O264        25.176620    17.607890    12.073071 oc23   1 silica         -0.5500
   1849 O265        34.112675    18.147998    14.633864 oc23   1 silica         -0.5500
   1850 O266        35.148602    18.853833    12.309245 oc23   1 silica         -0.5500
   1851 O267        34.387459     1.726893     5.494549 oc23   1 silica         -0.5500
   1852 O268        26.019843    18.903095    13.986229 oc23   1 silica         -0.5500
   1853 O269        20.613592    18.499134    19.303902 oc23   1 silica         -0.5500
   1854 O270        37.020982     9.916290    12.399946 oc23   1 silica         -0.5500
   1855 O271        20.193552     8.669975    13.521745 oc23   1 silica         -0.5500
   1856 O272        37.345798     4.604710     5.464449 oc23   1 silica         -0.5500
   1857 O273        33.767861     3.576517    16.617138 oc23   1 silica         -0.5500
   1858 O274        36.253831     4.754031    21.029142 oc23   1 silica         -0.5500
   1859 O275        22.135958    10.973676    17.469193 oc23   1 silica         -0.5500
   1860 O276        20.754854    16.376035     9.864088 oc23   1 silica         -0.5500
   1861 Si142       24.771740    11.524017    22.559026 sc4    1 silica          1.1000
   1862 Si143       35.361907    18.857604    13.925534 sc4    1 silica          1.1000
   1863 Si144       36.374534    19.083367    23.297339 sc4    1 silica          1.1000
   1864 Si145       27.228360     7.764354     5.639785 sc4    1 silica          1.1000
   1865 Si146       34.151175     1.623786    11.649216 sc4    1 silica          1.1000
   1866 Si147       27.395627    19.203145    17.340790 sc4    1 silica          1.1000
   1867 Si148       26.862221     1.440545    17.486403 sc4    1 silica          1.1000
   1868 O277        25.285872    18.138095    20.015562 oc23   1 silica         -0.5500
   1869 O278        31.467339     2.630053    17.773381 oc23   1 silica         -0.5500
   1870 O279        35.596257     4.040302    14.960928 oc23   1 silica         -0.5500
   1871 O280        33.045057    19.476597     9.648199 oc23   1 silica         -0.5500
   1872 O281        25.787834     4.364321    19.369627 oc23   1 silica         -0.5500
   1873 O282        25.909019     1.755921    18.664932 oc23   1 silica         -0.5500
   1874 O283        37.878075     8.186712    22.199125 oc23   1 silica         -0.5500
   1875 O284        25.905470     3.690103    14.032761 oc23   1 silica         -0.5500
   1876 O285        25.884992     6.730253     5.308213 oc23   1 silica         -0.5500
   1877 O286        20.425523    19.874344     8.139225 oc23   1 silica         -0.5500
   1878 O287        40.013912     8.248404    23.466064 oc23   1 silica         -0.5500
   1879 O288        19.820519     9.853521    21.613625 oc23   1 silica         -0.5500
   1880 O289        29.048291    12.988887    19.270946 oc23   1 silica         -0.5500
   1881 O290        31.346072    16.512386     4.407785 oc23   1 silica         -0.5500
   1882 O291        33.370721     7.287555     5.329862 oc23   1 silica         -0.5500
   1883 O292        28.456188    10.905976     6.575105 oc24   1 silica         -0.6750
   1884 Si149       36.698747     1.326573    23.877786 sc4    1 silica          1.1000
   1885 Si150       32.981924     5.926556    21.295533 sc4    1 silica          1.1000
   1886 Si151       22.000098     3.555386     9.378613 sc4    1 silica          1.1000
   1887 Si152       28.953310     5.761863     7.215091 sc4    1 silica          1.1000
   1888 Si153       26.775787     3.296896    12.786619 sc4    1 silica          1.1000
   1889 Si154       31.180581     5.273132    15.248944 sc4    1 silica          1.1000
   1890 Si155       35.118003    11.536405     5.893546 sc4    1 silica          1.1000
   1891 Si156       24.846724     5.395356     5.838327 sc4    1 silica          1.1000
   1892 O293        34.575043    18.945770    19.921531 oc23   1 silica         -0.5500
   1893 O294        25.288172    10.224420    21.951973 oc23   1 silica         -0.5500
   1894 O295        21.950914    15.187683     4.983179 oc23   1 silica         -0.5500
   1895 O296        26.950673    10.418529    14.613042 oc23   1 silica         -0.5500
   1896 O297        37.594460     3.470778    16.377943 oc23   1 silica         -0.5500
   1897 O298        30.578801    18.774490     5.821401 oc23   1 silica         -0.5500
   1898 O299        38.310330     1.308832    17.223648 oc23   1 silica         -0.5500
   1899 O300        30.934821    19.645763    12.446572 oc23   1 silica         -0.5500
   1900 O301        23.152172    16.543420    23.673506 oc23   1 silica         -0.5500
   1901 O302        39.149562    10.712406     6.448025 oc23   1 silica         -0.5500
   1902 O303        33.454978     8.555374    11.619824 oc23   1 silica         -0.5500
   1903 O304        21.612068     7.555993     4.537085 oc24   1 silica         -0.6750
   1904 O305        26.933942     9.972016     8.975844 oc23   1 silica         -0.5500
   1905 O306        30.601578     1.192425    10.362174 oc23   1 silica         -0.5500
   1906 O307        30.427297     1.671441    12.983509 oc23   1 silica         -0.5500
   1907 O308        31.517450     4.062717     9.258149 oc23   1 silica         -0.5500
   1908 Si157       32.390105    11.410659    20.717070 sc4    1 silica          1.1000
   1909 Si158       32.584462     5.374185    24.101659 sc4    1 silica          1.1000
   1910 Si159       25.606053     3.353704    15.563118 sc4    1 silica          1.1000
   1911 Si160       27.610062    14.010103    12.793371 sc4    1 silica          1.1000
   1912 Si161       32.621148    17.946017     9.684413 sc4    1 silica          1.1000
   1913 Si162       37.763137    10.456978    11.155032 sc4    1 silica          1.1000
   1914 Si163       29.187338     7.444416    14.675627 sc4    1 silica          1.1000
   1915 Si164       31.697335     7.390638     5.214725 sc4    1 silica          1.1000
   1916 O309        25.340823    20.246196    11.840392 oc23   1 silica         -0.5500
   1917 O310        24.668815    16.488149    16.892028 oc23   1 silica         -0.5500
   1918 O311        31.255243    13.340271    18.188855 oc23   1 silica         -0.5500
   1919 O312        27.836994    12.524185    13.101572 oc23   1 silica         -0.5500
   1920 O313        30.242172     3.683801    11.641425 oc23   1 silica         -0.5500
   1921 O314        36.446819    19.506345    21.712968 oc23   1 silica         -0.5500
   1922 O315        37.873558     7.644864    12.713010 oc23   1 silica         -0.5500
   1923 O316        37.896821     1.199597    22.795318 oc23   1 silica         -0.5500
   1924 O317        30.080751     5.956925    10.722890 oc23   1 silica         -0.5500
   1925 O318        20.190772    10.947823    19.218914 oc23   1 silica         -0.5500
   1926 O319        25.434110     4.674108    16.453488 oc23   1 silica         -0.5500
   1927 O320        27.789704    14.524066    11.254587 oc23   1 silica         -0.5500
   1928 O321        38.405753     6.139392    23.493874 oc23   1 silica         -0.5500
   1929 O322        34.084171     3.295885    11.490736 oc23   1 silica         -0.5500
   1930 O323        27.641264     1.375716    20.153785 oc23   1 silica         -0.5500
   1931 O324        25.577470     8.371582    14.771451 oc23   1 silica         -0.5500
   1932 Si165       24.989478    19.496609    20.814689 sc4    1 silica          1.1000
   1933 Si166       29.511346     8.985355    19.324064 sc4    1 silica          1.1000
   1934 Si167       33.851474     2.016905    20.393806 sc4    1 silica          1.1000
   1935 Si168       28.279124    13.481388     8.306955 sc4    1 silica          1.1000
   1936 Si169       27.549791    16.459147     3.835058 sc4    1 silica          1.1000
   1937 Si170       36.044760    15.753022     6.264450 sc4    1 silica          1.1000
   1938 Si171       38.537060     7.705231    23.489059 sc4    1 silica          1.1000
   1939 Si172       36.374615    12.870723    10.076030 sc4    1 silica          1.1000
   1940 O325        21.407995     0.289717    18.070887 oc23   1 silica         -0.5500
   1941 O326        32.114109    11.675244     3.578417 oc24   1 silica         -0.6750
   1942 O327        30.205568    18.739688    23.756276 oc24   1 silica         -0.6750
   1943 O328        25.153439    13.033301     5.610299 oc23   1 silica         -0.5500
   1944 O329        33.416276    12.559899    21.029260 oc23   1 silica         -0.5500
   1945 O330        28.586848     8.503998    20.640509 oc23   1 silica         -0.5500
   1946 O331        24.497679     9.290087     7.950642 oc23   1 silica         -0.5500
   1947 O332        30.670961     4.914124    16.706824 oc23   1 silica         -0.5500
   1948 O333        28.693721     6.792526    22.664342 oc23   1 silica         -0.5500
   1949 O334        38.301823    15.390575    23.834442 oc23   1 silica         -0.5500
   1950 O335        35.849677    12.919280    21.534280 oc23   1 silica         -0.5500
   1951 O336        23.282794     5.616893     5.987198 oc23   1 silica         -0.5500
   1952 O337        30.867736    13.818023     4.612017 oc23   1 silica         -0.5500
   1953 O338        26.005774    10.996132     6.772467 oc23   1 silica         -0.5500
   1954 O339        27.724151     9.213687     4.698587 oc23   1 silica         -0.5500
   1955 O340        24.322874     5.484601    11.304919 oc23   1 silica         -0.5500
   1956 Si173       25.849676    12.583433     6.930569 sc4    1 silica          1.1000
   1957 Si174       30.028624    11.518092    23.755898 sc4    1 silica          1.1000
   1958 Si175       22.944149     9.333384    10.781508 sc4    1 silica          1.1000
   1959 Si176       25.106593    11.170768    11.685123 sc4    1 silica          1.1000
   1960 Si177       22.126524    12.823531    21.830464 sc4    1 silica          1.1000
   1961 Si178       22.889643     7.685924    21.440061 sc4    1 silica          1.1000
   1962 Si179       27.496212    12.654944    21.882967 sc4    1 silica          1.1000
   1963 Si180       33.764113    16.873922    15.356761 sc4    1 silica          1.1000
   1964 O341        33.809507     9.806702    23.236383 oc23   1 silica         -0.5500
   1965 O342        28.175999     1.878820    18.030328 oc23   1 silica         -0.5500
   1966 O343        27.684039    12.607049     9.437822 oc23   1 silica         -0.5500
   1967 O344        23.564472    12.166255    21.595683 oc23   1 silica         -0.5500
   1968 O345        30.130581    10.283999    12.898993 oc23   1 silica         -0.5500
   1969 O346        26.747848     8.182279    22.278707 oc23   1 silica         -0.5500
   1970 O347        38.496784    17.171653    18.912295 oc23   1 silica         -0.5500
   1971 O348        39.465227     5.247568    16.519520 oc23   1 silica         -0.5500
   1972 O349        27.756000     4.801967     7.378127 oc23   1 silica         -0.5500
   1973 O350        27.284722    13.220823     7.052740 oc23   1 silica         -0.5500
   1974 O351        34.971580     0.935924    20.788105 oc23   1 silica         -0.5500
   1975 O352        38.972902     1.426358    11.871696 oc23   1 silica         -0.5500
   1976 O353        31.146836    17.645594    10.177671 oc23   1 silica         -0.5500
   1977 O354        30.249429    19.225146    19.679551 oc23   1 silica         -0.5500
   1978 O355        30.010523    10.102651    23.112797 oc23   1 silica         -0.5500
   1979 O356        31.121720     9.136126    19.655849 oc23   1 silica         -0.5500
   1980 Si181       28.129677    11.794030    19.164923 sc4    1 silica          1.1000
   1981 Si182       33.298719    10.139277    11.126231 sc4    1 silica          1.1000
   1982 Si183       27.760837     7.348833    21.532887 sc4    1 silica          1.1000
   1983 Si184       29.626161     0.395124     4.040235 sc4    1 silica          1.1000
   1984 Si185       30.124655     6.351109    22.623381 sc4    1 silica          1.1000
   1985 Si186       32.590467    13.607549    17.299736 sc4    1 silica          1.1000
   1986 Si187       32.627115     8.389356    19.828635 sc4    1 silica          1.1000
   1987 Si188       26.372438    17.141863    19.408462 sc4    1 silica          1.1000
   1988 O357        31.648716    14.218547    13.216306 oc23   1 silica         -0.5500
   1989 O358        29.879502    13.152295     7.957937 oc23   1 silica         -0.5500
   1990 O359        23.535889     1.580970    12.294537 oc23   1 silica         -0.5500
   1991 O360        24.135290    16.909636     5.009573 oc23   1 silica         -0.5500
   1992 O361        21.301806    16.929483    12.323173 oc23   1 silica         -0.5500
   1993 O362        21.697293     9.780269    11.703112 oc23   1 silica         -0.5500
   1994 O363        38.783665    13.227576     6.826482 oc23   1 silica         -0.5500
   1995 O364        32.239529     5.105125    11.658305 oc23   1 silica         -0.5500
   1996 O365        33.089564     7.654476    18.536906 oc23   1 silica         -0.5500
   1997 O366        24.702802     1.084499    10.111706 oc23   1 silica         -0.5500
   1998 O367        26.979417    17.753979    18.061468 oc23   1 silica         -0.5500
   1999 O368        38.529762    15.771293    11.100545 oc23   1 silica         -0.5500
   2000 O369        23.218249    17.135731    10.366135 oc23   1 silica         -0.5500
   2001 O370        29.296994    11.431541    14.928680 oc23   1 silica         -0.5500
   2002 O371        32.999704     1.444186    24.155012 oc24   1 silica         -0.6750
   2003 O372        31.012144     5.608234    23.819356 oc23   1 silica         -0.5500
   2004 Si189       30.066802    19.473489    18.174455 sc4    1 silica          1.1000
   2005 Si190       30.291317    15.793625    21.601326 sc4    1 silica          1.1000
   2006 Si191       25.135662    18.236911     4.757937 sc4    1 silica          1.1000
   2007 Si192       34.380565    13.210340    22.039347 sc4    1 silica          1.1000
   2008 Si193       21.006258     0.678296     4.897153 sc4    1 silica          1.1000
   2009 Si194       20.162792     6.453156    10.749662 sc4    1 silica          1.1000
   2010 Si195       30.489382    13.369191    19.632430 sc4    1 silica          1.1000
   2011 Si196       29.630960     7.187745     9.870516 sc4    1 silica          1.1000
   2012 O373        24.832412     4.117088     4.803004 oc23   1 silica         -0.5500
   2013 O374        30.372147    14.840772    20.254190 oc23   1 silica         -0.5500
   2014 O375        22.500526     0.297601     4.471196 oc24   1 silica         -0.6750
   2015 O376        22.082985     8.866196    21.967342 oc23   1 silica         -0.5500
   2016 O377        26.602191     2.233764    16.144296 oc23   1 silica         -0.5500
   2017 O378        20.039429    14.507037    12.322394 oc23   1 silica         -0.5500
   2018 O379        30.724499     7.797127    22.142182 oc23   1 silica         -0.5500
   2019 O380        24.332952    41.402284    19.981331 oc23   1 silica         -0.5500
   2020 O381        31.055925    12.254588    20.595252 oc23   1 silica         -0.5500
   2021 O382        28.426516     7.184970    13.251742 oc23   1 silica         -0.5500
   2022 O383        35.709463    15.093839     4.892007 oc23   1 silica         -0.5500
   2023 O384        32.675733     0.858127    12.063628 oc23   1 silica         -0.5500
   2024 O385        23.963991    19.098531     4.063417 oc23   1 silica         -0.5500
   2025 O386        26.455849     2.880352     8.435835 oc23   1 silica         -0.5500
   2026 O387        26.318900     0.567755     7.160250 oc23   1 silica         -0.5500
   2027 O388        22.818730    13.650307     6.744681 oc23   1 silica         -0.5500
   2028 Si197       25.250840     2.609407     4.385829 sc4    1 silica          1.1000
   2029 Si198       28.261385     2.845889     4.973642 sc4    1 silica          1.1000
   2030 Si199       31.356029    13.891317    11.697352 sc4    1 silica          1.1000
   2031 Si200       30.996020     4.670586    10.743736 sc4    1 silica          1.1000
   2032 Si201       31.044800     3.499250     7.738949 sc4    1 silica          1.1000
   2033 Si202       31.181506     9.208218    22.668920 sc4    1 silica          1.1000
   2034 Si203       31.866173    15.042918     4.960209 sc4    1 silica          1.1000
   2035 O389        30.302603     4.794800     7.084799 oc23   1 silica         -0.5500
   2036 O390        32.222797    15.257330     6.531195 oc23   1 silica         -0.5500
   2037 O391        33.527949    15.580002    14.463793 oc23   1 silica         -0.5500
   2038 O392        24.163350    15.191245    11.701012 oc23   1 silica         -0.5500
   2039 O393        29.862489    41.275636     5.493487 oc23   1 silica         -0.5500
   2040 O394        32.221708     4.621034    21.014552 oc23   1 silica         -0.5500
   2041 O395        28.814143    15.727126    22.383147 oc23   1 silica         -0.5500
   2042 O396        30.793920     4.028950     3.059964 oc24   1 silica         -0.6750
   2043 O397        36.102328     6.835739     5.684262 oc23   1 silica         -0.5500
   2044 O398        24.666558     1.356914     5.310927 oc23   1 silica         -0.5500
   2045 O399        31.015570     7.984731     6.596636 oc23   1 silica         -0.5500
   2046 O400        23.288962    15.689589     2.814631 oc24   1 silica         -0.6750
   2047 O401        32.479561    17.189799    16.233132 oc23   1 silica         -0.5500
   2048 O402        31.665082    15.518475    22.481380 oc23   1 silica         -0.5500
   2049 O403        27.179054    12.305797    17.998977 oc23   1 silica         -0.5500
   2050 Si204       25.026729    19.018566    12.794315 sc4    1 silica          1.1000
   2051 Si205       20.612222    13.061268     9.301338 sc4    1 silica          1.1000
   2052 Si206       30.931676    17.489311    16.008834 sc4    1 silica          1.1000
   2053 Si207       27.329671     1.689331     7.758568 sc4    1 silica          1.1000
   2054 Si208       34.528601    15.749210    17.867930 sc4    1 silica          1.1000
   2055 Si209       30.171782    18.584028    13.357340 sc4    1 silica          1.1000
   2056 Si210       27.812481     7.251261    17.416973 sc4    1 silica          1.1000
   2057 Si211       24.961018     1.036877    11.663310 sc4    1 silica          1.1000
   2058 O404        32.627679     4.698014    18.382770 oc23   1 silica         -0.5500
   2059 O405        30.888702     8.001097     9.253640 oc23   1 silica         -0.5500
   2060 O406        27.417881     5.836068    18.095297 oc23   1 silica         -0.5500
   2061 O407        27.022392    12.676946    15.453695 oc23   1 silica         -0.5500
   2062 O408        35.288574     1.427547    12.734328 oc23   1 silica         -0.5500
   2063 O409        30.020603    20.515297     7.825898 oc23   1 silica         -0.5500
   2064 O410        33.728273    12.429472    17.427147 oc23   1 silica         -0.5500
   2065 O411        29.045105    10.589518    10.428335 oc23   1 silica         -0.5500
   2066 O412        34.435393     1.893201    14.986046 oc23   1 silica         -0.5500
   2067 O413        35.534295    20.037214     8.727966 oc23   1 silica         -0.5500
   2068 O414        24.391046     8.022475    21.186984 oc23   1 silica         -0.5500
   2069 O415        39.325496     3.390649     4.524407 oc23   1 silica         -0.5500
   2070 O416        37.185668    11.912774    11.031752 oc23   1 silica         -0.5500
   2071 O417        27.321972    16.745649    20.575776 oc23   1 silica         -0.5500
   2072 O418        37.664768    12.664102    23.300857 oc23   1 silica         -0.5500
   2073 O419        20.755501     4.485385     6.186000 oc23   1 silica         -0.5500
   2074 O420        39.523400    13.481555    25.130891 oc24   1 silica         -0.6750
   2075 Si212        0.090535     3.265470    19.881350 sc4    1 silica          1.1000
   2076 O421        25.244107    18.108222    24.254072 oc23   1 silica         -0.5500
   2077 O422        25.855602    16.074741    22.644038 oc23   1 silica         -0.5500
   2078 O423        34.232409    18.187482    26.002187 oc24   1 silica         -0.6750
   2079 O424        35.294704     0.716632     3.226990 oc24   1 silica         -0.6750
   2080 O425        33.896345    11.143962    25.490912 oc24   1 silica         -0.6750
   2081 O426        27.260976    12.032347     4.471243 oc23   1 silica         -0.5500
   2082 O427        30.189199    18.446432     3.188581 oc24   1 silica         -0.6750
   2083 H1          25.572932     8.060691    24.166914 hoy    1 silica          0.4000
   2084 H2          35.206821    14.236098     2.188132 hoy    1 silica          0.4000
   2085 O428        37.218968     3.831407     2.922118 oc24   1 silica         -0.6750
   2086 H3          22.516043    12.335652    23.800727 hoy    1 silica          0.4000
   2087 O429        39.722557    10.556291     3.925004 oc24   1 silica         -0.6750
   2088 H4          35.697348     5.485067     3.461820 hoy    1 silica          0.4000
   2089 O430        36.543091    10.018669     2.523098 oc24   1 silica         -0.6750
   2090 O431        35.426693     8.136787     3.772403 oc23   1 silica         -0.5500
   2091 H5          24.389609    10.479551    24.394461 hoy    1 silica          0.4000
   2092 O432        21.531357    20.330261     3.789022 oc23   1 silica         -0.5500
   2093 O433        29.317714     6.163339     2.726102 oc24   1 silica         -0.6750
   2094 H6          39.109205     6.912066     4.370174 hoy    1 silica          0.4000
   2095 H7          22.501169     7.804004     4.375832 hoy    1 silica          0.4000
   2096 O434        33.118633     6.273880    25.389657 oc24   1 silica         -0.6750
   2097 O435        27.124589    14.857345     4.163514 oc23   1 silica         -0.5500
   2098 O436        28.163179    16.578968     2.357772 oc24   1 silica         -0.6750
   2099 O437        37.740521     8.287143    24.832818 oc24   1 silica         -0.6750
   2100 H8          31.843050    12.054503     2.774411 hoy    1 silica          0.4000
   2101 H9          30.670745    18.087425    24.255338 hoy    1 silica          0.4000
   2102 O438        29.624350    11.312176    25.348060 oc24   1 silica         -0.6750
   2103 O439        31.720718    11.759227    23.778845 oc23   1 silica         -0.5500
   2104 O440        22.823004     6.822067    22.839558 oc24   1 silica         -0.6750
   2105 O441        30.821092     0.192284     2.975283 oc24   1 silica         -0.6750
   2106 O442        28.279569    41.184940     3.423054 oc24   1 silica         -0.6750
   2107 O443        20.142111     0.783549     3.529549 oc24   1 silica         -0.6750
   2108 H10         22.819248     0.930321     3.836374 hoy    1 silica          0.4000
   2109 O444        31.911728     8.795141    24.075855 oc24   1 silica         -0.6750
   2110 H11         30.537382     3.179226     3.374463 hoy    1 silica          0.4000
   2111 H12         39.151453    14.036403    25.791412 hoy    1 silica          0.4000
   2112 H13         34.698053    18.983910    26.182690 hoy    1 silica          0.4000
   2113 H14         34.813874    11.330850    25.476261 hoy    1 silica          0.4000
   2114 H15         29.359448    18.347279     2.765240 hoy    1 silica          0.4000
   2115 H16         37.461462     3.130859     2.345092 hoy    1 silica          0.4000
   2116 H17         36.275065     9.360735     1.905663 hoy    1 silica          0.4000
   2117 H18         30.006785     6.347269     2.118527 hoy    1 silica          0.4000
   2118 H19         34.029085     6.081012    25.530200 hoy    1 silica          0.4000
   2119 H20         28.373520    15.735417     2.003281 hoy    1 silica          0.4000
   2120 H21         21.944966     6.498109    22.981970 hoy    1 silica          0.4000
   2121 H22         32.843120     8.756350    23.947119 hoy    1 silica          0.4000
   2122 Si213       24.910705    16.559330    23.916691 sc4    1 silica          1.1000
   2123 O445        25.271601    15.693153    25.261797 oc24   1 silica         -0.6750
   2124 H23         24.820672    14.866712    25.229421 hoy    1 silica          0.4000
   2125 Si214       26.943577    13.376566     3.436723 sc4    1 silica          1.1000
   2126 O446        27.670695    13.201515     2.024995 oc24   1 silica         -0.6750
   2127 H24         27.149680    12.617248     1.508458 hoy    1 silica          0.4000
   2128 O447        25.422379    13.094248     3.200147 oc23   1 silica         -0.5500
   2129 Si215       29.716669     1.870770    22.768193 sc4    1 silica          1.1000
   2130 O448        29.594152     2.930878    24.027979 oc24   1 silica         -0.6750
   2131 H25         29.807431     2.495685    24.828908 hoy    1 silica          0.4000
   2132 O449        22.977692    19.239109    24.531841 oc24   1 silica         -0.6750
   2133 H26         23.042033    19.620604    25.388286 hoy    1 silica          0.4000
   2134 O450        39.480303     2.473510    21.054827 oc23   1 silica         -0.5500
   2135 O451        40.251083     4.867223    19.573221 oc23   1 silica         -0.5500
   2136 O452        22.652150     4.457087    23.227743 oc23   1 silica         -0.5500
   2137 O453         0.455952     5.769404    21.678759 oc23   1 silica         -0.5500
   2138 Si216        0.292614     6.349204    20.281480 sc4    1 silica          1.1000
   2139 O454        39.417051     7.463806    20.175410 oc23   1 silica         -0.5500
   2140 Si217       39.423462     1.496026    22.467947 sc4    1 silica          1.1000
   2141 Si218       24.169114     4.397301    22.940671 sc4    1 silica          1.1000
   2142 O455        24.958276     5.482695    23.877927 oc24   1 silica         -0.6750
   2143 H27         24.387793     6.236723    23.876066 hoy    1 silica          0.4000
   2144 O456        39.939973     2.231519    23.852596 oc24   1 silica         -0.6750
   2145 H28         40.008681     1.576384    24.523839 hoy    1 silica          0.4000
   2146 H29         32.188893     1.296120    23.704909 hoy    1 silica          0.4000
   2147 O457        37.241181     1.581359    25.334863 oc24   1 silica         -0.6750
   2148 H30         36.713438     1.062293    25.919796 hoy    1 silica          0.4000
   2149 H31         38.271927     3.368217    24.371800 hoy    1 silica          0.4000
   2150 H32         28.102381    40.377417     3.870069 hoy    1 silica          0.4000
   2151 O458        24.695504     2.342904     2.897212 oc24   1 silica         -0.6750
   2152 H33         24.731979     3.139622     2.407470 hoy    1 silica          0.4000
   2153 H34         29.196511    10.365199     6.797280 hoy    1 silica          0.4000
   2154 O459        24.616286    10.815571     4.438097 oc24   1 silica         -0.6750
   2155 H35         25.400546    10.706975     4.943148 hoy    1 silica          0.4000
   2156 H36         32.177864     8.871505     3.758585 hoy    1 silica          0.4000
   2157 H37         24.231974    15.587719     2.851197 hoy    1 silica          0.4000
   2158 H38         40.204649    11.288206     4.241853 hoy    1 silica          0.4000
   2159 H39         20.635054    10.465048    24.559257 hoy    1 silica          0.4000
   2160 H40         38.350421     8.782419    25.333303 hoy    1 silica          0.4000
   2161 H41         34.354514     0.816961     3.145800 hoy    1 silica          0.4000
   2162 H42         30.156932    10.628166    25.706398 hoy    1 silica          0.4000
   2163 Si1         35.682975    41.002668    20.344467 sc4    1 silica          1.1000
   2164 Si2         34.487842    27.697906    18.200542 sc4    1 silica          1.1000
   2165 Si3         38.825392    34.973775    23.664488 sc4    1 silica          1.1000
   2166 Si4         37.249365    35.405497    18.283428 sc4    1 silica          1.1000
   2167 Si5         28.495171    23.007805    19.357563 sc4    1 silica          1.1000
   2168 Si6         37.911253    22.934427    15.868438 sc4    1 silica          1.1000
   2169 Si7         20.555498    20.153720    19.374349 sc4    1 silica          1.1000
   2170 Si8         33.731658    23.235140    23.591234 sc4    1 silica          1.1000
   2171 O1          29.097919    40.384297    16.934286 oc23   1 silica         -0.5500
   2172 O2          34.522836    26.549244    12.389370 oc23   1 silica         -0.5500
   2173 O3          32.590993    33.041099     8.497143 oc23   1 silica         -0.5500
   2174 O4          28.240100    23.772142    13.470846 oc23   1 silica         -0.5500
   2175 O5          36.887539    38.803501    13.979596 oc23   1 silica         -0.5500
   2176 O6          22.007838    39.619007    22.253941 oc23   1 silica         -0.5500
   2177 O7          23.935207    25.818965    18.704097 oc23   1 silica         -0.5500
   2178 O8          28.848772    28.824317    10.997285 oc23   1 silica         -0.5500
   2179 O9          38.277835    38.638146    16.091414 oc23   1 silica         -0.5500
   2180 O10         36.608480    35.004395    10.485489 oc23   1 silica         -0.5500
   2181 O11         29.400037    22.591868     4.389253 oc23   1 silica         -0.5500
   2182 O12         32.258154    31.005628    21.935283 oc23   1 silica         -0.5500
   2183 O13         33.750687    23.050231     3.015038 oc24   1 silica         -0.6750
   2184 O14         39.188184    23.022471    14.834012 oc23   1 silica         -0.5500
   2185 O15         20.317116    21.198677    13.713370 oc23   1 silica         -0.5500
   2186 O16         22.166315    33.672935     9.465922 oc23   1 silica         -0.5500
   2187 Si9         27.637152    28.368563    11.990987 sc4    1 silica          1.1000
   2188 Si10        33.525087    25.280390    12.644547 sc4    1 silica          1.1000
   2189 Si11        35.109336    28.049166     4.693063 sc4    1 silica          1.1000
   2190 Si12        34.808667    28.176031    11.919384 sc4    1 silica          1.1000
   2191 Si13        37.759547    21.673320    18.934817 sc4    1 silica          1.1000
   2192 Si14        37.788010    27.153738     5.660442 sc4    1 silica          1.1000
   2193 Si15        22.628041    25.793193    14.495806 sc4    1 silica          1.1000
   2194 Si16        31.532367    29.529281     8.129084 sc4    1 silica          1.1000
   2195 O17         33.305652    23.183433    22.017722 oc23   1 silica         -0.5500
   2196 O18         38.528070    25.219526     8.557685 oc23   1 silica         -0.5500
   2197 O19         30.154769    37.985716    12.421948 oc23   1 silica         -0.5500
   2198 O20         38.444496    25.211987    21.249096 oc23   1 silica         -0.5500
   2199 O21         35.707687    29.361027     8.505401 oc23   1 silica         -0.5500
   2200 O22         37.518508    24.488128    23.629525 oc24   1 silica         -0.6750
   2201 O23         40.065111    23.025993    18.325663 oc23   1 silica         -0.5500
   2202 O24         37.323100    23.027857    19.857861 oc23   1 silica         -0.5500
   2203 O25         23.003089    24.513897    13.543747 oc23   1 silica         -0.5500
   2204 O26         30.933935    31.065248     8.244375 oc23   1 silica         -0.5500
   2205 O27         30.215324    23.143950     8.727671 oc23   1 silica         -0.5500
   2206 O28         33.152860    29.495266     8.110716 oc23   1 silica         -0.5500
   2207 O29         28.839057    22.599368     7.061971 oc23   1 silica         -0.5500
   2208 O30         36.589331    20.582500    19.292901 oc23   1 silica         -0.5500
   2209 O31         20.084219    37.818703    17.346904 oc23   1 silica         -0.5500
   2210 Si17        37.597565    33.899609    13.811461 sc4    1 silica          1.1000
   2211 Si18        21.639281    28.765897     5.937409 sc4    1 silica          1.1000
   2212 Si19        33.911502    38.534067    19.907012 sc4    1 silica          1.1000
   2213 Si20        34.812901    32.349887    13.509728 sc4    1 silica          1.1000
   2214 Si21        21.024278    32.636060    18.107975 sc4    1 silica          1.1000
   2215 Si22        23.199825    33.187436     8.369292 sc4    1 silica          1.1000
   2216 Si23        24.464622    40.171418    23.772376 sc4    1 silica          1.1000
   2217 Si24        31.212549    22.059178    18.806154 sc4    1 silica          1.1000
   2218 O32         23.754315    35.306847    18.441460 oc23   1 silica         -0.5500
   2219 O33         34.516548    31.504841     7.072405 oc23   1 silica         -0.5500
   2220 O34         39.995164    27.141887     9.373679 oc23   1 silica         -0.5500
   2221 O35         22.819133    37.037171    15.531034 oc23   1 silica         -0.5500
   2222 O36         37.469081    27.470817     9.184084 oc23   1 silica         -0.5500
   2223 O37         37.148497    37.755935     6.313743 oc23   1 silica         -0.5500
   2224 O38         25.128929    40.022429     5.830253 oc23   1 silica         -0.5500
   2225 O39         20.352675    41.052056     5.944327 oc23   1 silica         -0.5500
   2226 O40         21.079509    25.690939    14.693993 oc23   1 silica         -0.5500
   2227 O41         34.830479    37.329722    16.518504 oc23   1 silica         -0.5500
   2228 O42         20.150939    21.169426    10.266576 oc23   1 silica         -0.5500
   2229 O43         34.778834    26.120713    18.279982 oc23   1 silica         -0.5500
   2230 O44         39.118922    27.209174    14.542124 oc23   1 silica         -0.5500
   2231 O45         28.225183    35.159682    16.451033 oc23   1 silica         -0.5500
   2232 O46         26.277980    22.618385    12.136010 oc23   1 silica         -0.5500
   2233 O47         30.405608    25.023761    19.521048 oc23   1 silica         -0.5500
   2234 Si25        33.707067    39.092405    24.222838 sc4    1 silica          1.1000
   2235 Si26        36.498987    29.939872    18.581171 sc4    1 silica          1.1000
   2236 Si27        20.747638    39.654430     6.600342 sc4    1 silica          1.1000
   2237 Si28        35.124090    30.017018    22.187368 sc4    1 silica          1.1000
   2238 Si29        33.985078    24.764521    18.255430 sc4    1 silica          1.1000
   2239 Si30        22.119873    35.430770    18.527203 sc4    1 silica          1.1000
   2240 Si31        34.128921    23.440893     4.555830 sc4    1 silica          1.1000
   2241 Si32        34.754565    34.874462     4.211156 sc4    1 silica          1.1000
   2242 O48         34.619954    33.655782     5.285596 oc23   1 silica         -0.5500
   2243 O49         29.144885    28.626853    18.285766 oc23   1 silica         -0.5500
   2244 O50         31.619407    29.385470     4.179474 oc24   1 silica         -0.6750
   2245 O51         20.014353    25.183108    22.898035 oc23   1 silica         -0.5500
   2246 O52         33.265419    26.616240    23.009606 oc23   1 silica         -0.5500
   2247 O53         19.965250    35.146341    22.807193 oc23   1 silica         -0.5500
   2248 O54         25.958484    36.636110     9.923556 oc23   1 silica         -0.5500
   2249 O55         36.472540    31.197334    22.369927 oc23   1 silica         -0.5500
   2250 O56         25.707285    34.951238    16.912472 oc23   1 silica         -0.5500
   2251 O57         24.286470    20.734555     7.546806 oc23   1 silica         -0.5500
   2252 O58         28.655906    39.503576    13.748050 oc23   1 silica         -0.5500
   2253 O59         21.499268    20.731406    20.500183 oc23   1 silica         -0.5500
   2254 O60         29.255629    33.526556    22.784741 oc23   1 silica         -0.5500
   2255 O61         30.171621    38.008794    20.910111 oc23   1 silica         -0.5500
   2256 O62         21.620656    36.843394    19.193182 oc23   1 silica         -0.5500
   2257 O63         34.458132    31.569019    12.137545 oc23   1 silica         -0.5500
   2258 Si33        30.223546    37.486667    10.940153 sc4    1 silica          1.1000
   2259 Si34        33.551291    32.171234    24.026916 sc4    1 silica          1.1000
   2260 Si35        36.965671    29.460381    13.400377 sc4    1 silica          1.1000
   2261 Si36        27.822761    31.633612    10.186007 sc4    1 silica          1.1000
   2262 Si37        28.324922    31.339073     5.130256 sc4    1 silica          1.1000
   2263 Si38        33.520732    34.050590     9.494183 sc4    1 silica          1.1000
   2264 Si39        34.464260    30.395749     8.283940 sc4    1 silica          1.1000
   2265 Si40        27.616432    36.243212    10.071769 sc4    1 silica          1.1000
   2266 O64         32.344184    23.482243     7.469938 oc23   1 silica         -0.5500
   2267 O65         34.045226    29.884769    20.847668 oc23   1 silica         -0.5500
   2268 O66         22.840097    31.624786     8.020639 oc23   1 silica         -0.5500
   2269 O67         28.125727    35.480986     8.765491 oc23   1 silica         -0.5500
   2270 O68         22.131162    34.440174    15.494442 oc23   1 silica         -0.5500
   2271 O69         39.519450    31.064833    11.742490 oc23   1 silica         -0.5500
   2272 O70         21.840211    34.804194    21.247821 oc23   1 silica         -0.5500
   2273 O71         38.355159    37.943000    21.599343 oc23   1 silica         -0.5500
   2274 O72         37.234448    26.018417    13.632135 oc23   1 silica         -0.5500
   2275 O73         34.936062    33.328096     9.788356 oc23   1 silica         -0.5500
   2276 O74         37.640258    33.931471    17.959387 oc23   1 silica         -0.5500
   2277 O75         37.221145    35.352837    13.006645 oc23   1 silica         -0.5500
   2278 O76         36.670889    35.433961     7.073633 oc23   1 silica         -0.5500
   2279 O77         33.672034    35.519560     8.884076 oc23   1 silica         -0.5500
   2280 O78         33.542703    30.733957    17.065310 oc23   1 silica         -0.5500
   2281 Si41        19.906955    31.769178    20.966817 sc4    1 silica          1.1000
   2282 Si42        22.692101    33.574245    14.436030 sc4    1 silica          1.1000
   2283 Si43        20.751750    35.860544    21.536026 sc4    1 silica          1.1000
   2284 Si44        35.309903    38.521018    10.961518 sc4    1 silica          1.1000
   2285 Si45        33.220508    30.633983    15.471873 sc4    1 silica          1.1000
   2286 Si46        38.290575    38.331051     7.252793 sc4    1 silica          1.1000
   2287 Si47        20.112883    26.597637    15.395006 sc4    1 silica          1.1000
   2288 Si48        38.242196    33.161872    16.659609 sc4    1 silica          1.1000
   2289 O79         28.810997    31.030321    18.892677 oc23   1 silica         -0.5500
   2290 O80         36.367801    32.761142    13.720523 oc23   1 silica         -0.5500
   2291 O81         25.827583    25.714804     9.368752 oc23   1 silica         -0.5500
   2292 O82         33.399626    35.729081    17.766228 oc23   1 silica         -0.5500
   2293 O83         20.898334    23.398093    12.533472 oc23   1 silica         -0.5500
   2294 O84         35.832904    35.560992    17.758177 oc23   1 silica         -0.5500
   2295 O85         22.818891    33.312891     4.771346 oc23   1 silica         -0.5500
   2296 O86         33.253566    35.465035     4.127488 oc23   1 silica         -0.5500
   2297 O87         24.397296    27.782468    16.819717 oc23   1 silica         -0.5500
   2298 O88         25.504500    25.126553     6.885738 oc23   1 silica         -0.5500
   2299 O89         32.644973    34.417511    15.670533 oc23   1 silica         -0.5500
   2300 O90         30.528608    33.441579    11.885790 oc23   1 silica         -0.5500
   2301 O91         38.097549    34.047937    15.363701 oc23   1 silica         -0.5500
   2302 O92         32.342452    38.682644    19.589959 oc23   1 silica         -0.5500
   2303 O93         37.348016    29.651879    17.306110 oc23   1 silica         -0.5500
   2304 O94         21.476087    37.126995    21.883370 oc23   1 silica         -0.5500
   2305 Si49        27.323020    36.568865    21.985733 sc4    1 silica          1.1000
   2306 Si50        23.250299    22.211149    16.162238 sc4    1 silica          1.1000
   2307 Si51        30.746711    24.808894    21.030960 sc4    1 silica          1.1000
   2308 Si52        35.632460    21.769775    14.130709 sc4    1 silica          1.1000
   2309 Si53        38.800961    37.737290    17.310737 sc4    1 silica          1.1000
   2310 Si54        31.054395    39.181111    20.300792 sc4    1 silica          1.1000
   2311 Si55        33.253364    36.806230    22.473093 sc4    1 silica          1.1000
   2312 Si56        30.286641    38.137647     4.889503 sc4    1 silica          1.1000
   2313 O95         22.507298    38.606822    17.514331 oc23   1 silica         -0.5500
   2314 O96         26.044921    36.554117    18.960054 oc23   1 silica         -0.5500
   2315 O97         36.976112    22.427880    14.629544 oc23   1 silica         -0.5500
   2316 O98         28.976330    27.218744     8.877267 oc23   1 silica         -0.5500
   2317 O99         35.418872    23.065851    23.870562 oc23   1 silica         -0.5500
   2318 O100        26.709509    27.389527    11.140348 oc23   1 silica         -0.5500
   2319 O101        39.465468    26.572199    12.011077 oc23   1 silica         -0.5500
   2320 O102        19.749445    36.275402    20.397513 oc23   1 silica         -0.5500
   2321 O103        37.791720    39.203194    23.722399 oc23   1 silica         -0.5500
   2322 O104        32.669123    26.460455    15.362804 oc23   1 silica         -0.5500
   2323 O105        31.962163    31.350092    11.008829 oc23   1 silica         -0.5500
   2324 O106        21.470846    33.339283    13.345843 oc23   1 silica         -0.5500
   2325 O107        33.216154    37.616307    23.830570 oc23   1 silica         -0.5500
   2326 O108        28.771933    37.637728     5.043875 oc23   1 silica         -0.5500
   2327 O109        20.552031    33.753771     5.913990 oc23   1 silica         -0.5500
   2328 O110        24.123115    29.514946    23.207960 oc24   1 silica         -0.6750
   2329 Si57        22.014006    34.240512     5.786083 sc4    1 silica          1.1000
   2330 Si58        39.546783    36.619080     9.660199 sc4    1 silica          1.1000
   2331 Si59        37.928064    30.368073    16.030955 sc4    1 silica          1.1000
   2332 Si60        31.263184    32.616212     7.749409 sc4    1 silica          1.1000
   2333 Si61        31.121963    32.496598     4.816484 sc4    1 silica          1.1000
   2334 Si62        21.346232    40.502583     9.597255 sc4    1 silica          1.1000
   2335 Si63        23.290815    27.254747    12.072953 sc4    1 silica          1.1000
   2336 Si64        38.689248    26.791415     8.494619 sc4    1 silica          1.1000
   2337 O111        22.645095    29.735406     9.571822 oc23   1 silica         -0.5500
   2338 O112        35.583719    31.427902     4.460524 oc23   1 silica         -0.5500
   2339 O113        29.749567    31.716517     4.408446 oc23   1 silica         -0.5500
   2340 O114        28.267998    21.593771    22.487706 oc23   1 silica         -0.5500
   2341 O115        26.395136    20.201739    21.199638 oc23   1 silica         -0.5500
   2342 O116        35.832542    23.618428     4.833128 oc23   1 silica         -0.5500
   2343 O117        28.700253    27.433527     6.248538 oc23   1 silica         -0.5500
   2344 O118        22.075406    37.625548     3.725258 oc23   1 silica         -0.5500
   2345 O119        34.155529    31.012588     9.714860 oc23   1 silica         -0.5500
   2346 O120        37.552130    20.380560    10.358758 oc23   1 silica         -0.5500
   2347 O121        35.352394    34.418630     2.756273 oc24   1 silica         -0.6750
   2348 O122        27.635218    26.550652    20.681941 oc23   1 silica         -0.5500
   2349 O123        37.061135    26.538057    16.207777 oc23   1 silica         -0.5500
   2350 O124        31.595339    32.243697     6.301018 oc23   1 silica         -0.5500
   2351 O125        21.362721    35.805150    17.135425 oc23   1 silica         -0.5500
   2352 O126        35.116148    39.156087    23.426002 oc23   1 silica         -0.5500
   2353 Si65        37.104917    36.088503    11.518947 sc4    1 silica          1.1000
   2354 Si66        20.246405    40.854426    14.980027 sc4    1 silica          1.1000
   2355 Si67        31.097571    24.901328    18.111114 sc4    1 silica          1.1000
   2356 Si68        21.856255    20.536593    22.004667 sc4    1 silica          1.1000
   2357 Si69        33.333872    36.491430     7.603795 sc4    1 silica          1.1000
   2358 Si70        20.686764    21.946523    17.218194 sc4    1 silica          1.1000
   2359 Si71        36.940796    40.173987     9.133275 sc4    1 silica          1.1000
   2360 Si72        31.242423    40.541738    22.955521 sc4    1 silica          1.1000
   2361 O127        37.233965    29.590518    14.909203 oc23   1 silica         -0.5500
   2362 O128        25.755985    22.374723    22.278306 oc23   1 silica         -0.5500
   2363 O129        35.983843    37.199170    11.701932 oc23   1 silica         -0.5500
   2364 O130        21.572722    40.020897    15.024197 oc23   1 silica         -0.5500
   2365 O131        20.828228    27.998412    15.609035 oc23   1 silica         -0.5500
   2366 O132        23.962581    39.286639    15.530680 oc23   1 silica         -0.5500
   2367 O133        26.387636    38.224654     4.163349 oc23   1 silica         -0.5500
   2368 O134        28.708841    37.472207    10.338275 oc23   1 silica         -0.5500
   2369 O135        38.995559    37.655669    13.698922 oc23   1 silica         -0.5500
   2370 O136        24.799879    33.268850     8.461303 oc23   1 silica         -0.5500
   2371 O137        35.386297    40.910440    14.405057 oc23   1 silica         -0.5500
   2372 O138        36.271853    38.941178     9.811270 oc23   1 silica         -0.5500
   2373 O139        21.844161    39.232487     5.482132 oc23   1 silica         -0.5500
   2374 O140        33.156126    29.116703    14.881842 oc23   1 silica         -0.5500
   2375 O141        38.457599    32.751943    21.187032 oc23   1 silica         -0.5500
   2376 O142        20.232254    38.031207    23.821174 oc23   1 silica         -0.5500
   2377 Si73        22.966523    36.568368     4.450231 sc4    1 silica          1.1000
   2378 Si74        25.232899    29.074192    16.439182 sc4    1 silica          1.1000
   2379 Si75        37.244286    24.435260     4.539138 sc4    1 silica          1.1000
   2380 Si76        38.761572    38.004650    23.177694 sc4    1 silica          1.1000
   2381 Si77        24.495423    24.666574    19.821482 sc4    1 silica          1.1000
   2382 Si78        38.603177    25.288552    22.824875 sc4    1 silica          1.1000
   2383 Si79        19.659583    22.523548    13.244777 sc4    1 silica          1.1000
   2384 Si80        24.302113    21.861380    18.940129 sc4    1 silica          1.1000
   2385 O143        37.808733    30.089980     4.791319 oc23   1 silica         -0.5500
   2386 O144        22.224370    34.040437    23.642109 oc24   1 silica         -0.6750
   2387 O145        20.699221    22.409608     4.868540 oc23   1 silica         -0.5500
   2388 O146        28.467878    21.597251     9.361526 oc23   1 silica         -0.5500
   2389 O147        36.660569    32.842308     6.331590 oc23   1 silica         -0.5500
   2390 O148        28.406317    24.574969    19.207535 oc23   1 silica         -0.5500
   2391 O149        32.705285    40.262734    23.762249 oc23   1 silica         -0.5500
   2392 O150        32.339429    27.882153    21.026781 oc23   1 silica         -0.5500
   2393 O151        34.326020    35.572967    22.472409 oc23   1 silica         -0.5500
   2394 O152        30.925508    20.740025    17.948504 oc23   1 silica         -0.5500
   2395 O153        39.789157    32.847902    17.074517 oc23   1 silica         -0.5500
   2396 O154        39.043051    20.850109    19.505939 oc23   1 silica         -0.5500
   2397 O155        21.617349    30.464071    23.706982 oc24   1 silica         -0.6750
   2398 O156        22.631912    20.476393     9.597647 oc23   1 silica         -0.5500
   2399 O157        30.360858    27.073606    14.545311 oc23   1 silica         -0.5500
   2400 O158        26.794573    25.046300    11.737179 oc23   1 silica         -0.5500
   2401 Si81        23.157697    40.205434    14.663563 sc4    1 silica          1.1000
   2402 Si82        26.267498    30.162651     7.905669 sc4    1 silica          1.1000
   2403 Si83        25.558763    20.681150     6.589742 sc4    1 silica          1.1000
   2404 Si84        20.547396    29.562593    15.215492 sc4    1 silica          1.1000
   2405 Si85        23.273480    30.093502     8.230000 sc4    1 silica          1.1000
   2406 Si86        26.509910    24.937332     8.119150 sc4    1 silica          1.1000
   2407 Si87        32.669243    22.057561     6.643120 sc4    1 silica          1.1000
   2408 Si88        22.573576    23.646104    12.283677 sc4    1 silica          1.1000
   2409 O159        21.860448    27.750191    19.499706 oc23   1 silica         -0.5500
   2410 O160        37.633847    30.087785    10.120951 oc23   1 silica         -0.5500
   2411 O161        30.748285    24.487713    14.400052 oc23   1 silica         -0.5500
   2412 O162        20.258540    28.823487    11.013125 oc23   1 silica         -0.5500
   2413 O163        22.874283    22.879406     8.513916 oc23   1 silica         -0.5500
   2414 O164        34.401730    33.254929    23.368847 oc23   1 silica         -0.5500
   2415 O165        29.868979    22.325708    19.595719 oc23   1 silica         -0.5500
   2416 O166        38.431837    22.691511     9.530653 oc23   1 silica         -0.5500
   2417 O167        26.891813    39.584866    15.829390 oc23   1 silica         -0.5500
   2418 O168        38.632404    27.335706     6.977738 oc23   1 silica         -0.5500
   2419 O169        31.357762    40.332257    21.372353 oc23   1 silica         -0.5500
   2420 O170        35.895554    28.149224    10.840835 oc23   1 silica         -0.5500
   2421 O171        19.942472    32.949783     8.359997 oc23   1 silica         -0.5500
   2422 O172        24.010234    23.485557    15.718552 oc23   1 silica         -0.5500
   2423 O173        33.470701    24.687084    14.154058 oc23   1 silica         -0.5500
   2424 O174        21.964823    26.897232    11.191270 oc23   1 silica         -0.5500
   2425 Si89        26.076084    30.234661    13.698426 sc4    1 silica          1.1000
   2426 Si90        33.781488    27.715472    15.336623 sc4    1 silica          1.1000
   2427 Si91        27.338057    25.728602    19.398145 sc4    1 silica          1.1000
   2428 Si92        38.085171    28.699274    20.640344 sc4    1 silica          1.1000
   2429 Si93        30.318972    31.038733    14.643237 sc4    1 silica          1.1000
   2430 Si94        21.711002    35.959857    15.702616 sc4    1 silica          1.1000
   2431 Si95        30.022295    21.534856     9.132910 sc4    1 silica          1.1000
   2432 Si96        27.868278    32.402259    14.480555 sc4    1 silica          1.1000
   2433 O175        26.798242    28.849672     7.165539 oc23   1 silica         -0.5500
   2434 O176        24.152786    31.278001    10.878324 oc23   1 silica         -0.5500
   2435 O177        28.362535    27.500565    16.053902 oc23   1 silica         -0.5500
   2436 O178        26.383926    34.989563    13.396741 oc23   1 silica         -0.5500
   2437 O179        26.618600    29.045190    17.227661 oc23   1 silica         -0.5500
   2438 O180        33.816641    38.233727    10.431121 oc23   1 silica         -0.5500
   2439 O181        32.664971    37.768530     8.189231 oc23   1 silica         -0.5500
   2440 O182        24.920338    33.669871    11.849599 oc23   1 silica         -0.5500
   2441 O183        37.389621    36.062609    19.736398 oc23   1 silica         -0.5500
   2442 O184        37.550477    29.894008    19.811967 oc23   1 silica         -0.5500
   2443 O185        36.889716    27.710708    20.461844 oc23   1 silica         -0.5500
   2444 O186        23.807572    34.612407    13.888092 oc23   1 silica         -0.5500
   2445 O187        35.510025    28.967007    13.035163 oc23   1 silica         -0.5500
   2446 O188        32.995955    24.521854    24.344914 oc23   1 silica         -0.5500
   2447 O189        21.794896    22.579438    16.391163 oc23   1 silica         -0.5500
   2448 O190        31.240164    39.097418    16.851658 oc23   1 silica         -0.5500
   2449 Si97        36.693222    28.783216     9.620738 sc4    1 silica          1.1000
   2450 Si98        27.065609    34.064468    16.779867 sc4    1 silica          1.1000
   2451 Si99        24.402657    22.102556    23.095680 sc4    1 silica          1.1000
   2452 Si100       38.420428    37.188978    20.179920 sc4    1 silica          1.1000
   2453 Si101       37.378089    24.787349    20.160466 sc4    1 silica          1.1000
   2454 Si102       21.816304    38.146678    23.098466 sc4    1 silica          1.1000
   2455 Si103       35.823230    27.070334    21.334698 sc4    1 silica          1.1000
   2456 Si104       34.081350    31.680721    18.162486 sc4    1 silica          1.1000
   2457 O191        33.129638    31.475673    19.418094 oc23   1 silica         -0.5500
   2458 O192        20.369083    29.625403     6.128728 oc23   1 silica         -0.5500
   2459 O193        36.166873    20.438689    24.227773 oc23   1 silica         -0.5500
   2460 O194        26.398159    20.400406    17.237694 oc23   1 silica         -0.5500
   2461 O195        23.878968    23.232365    19.572442 oc23   1 silica         -0.5500
   2462 O196        35.041808    27.103024    14.568140 oc23   1 silica         -0.5500
   2463 O197        30.051322    37.019440    15.801037 oc23   1 silica         -0.5500
   2464 O198        31.789050    31.235575    15.268703 oc23   1 silica         -0.5500
   2465 O199        34.419106    26.734114    20.733690 oc23   1 silica         -0.5500
   2466 O200        31.547162    26.876846     4.834851 oc23   1 silica         -0.5500
   2467 O201        38.208735    36.285636    17.298154 oc23   1 silica         -0.5500
   2468 O202        24.295219    39.952286    22.184558 oc23   1 silica         -0.5500
   2469 O203        35.673541    31.251859    18.470899 oc23   1 silica         -0.5500
   2470 O204        32.388814    21.863245    19.869760 oc23   1 silica         -0.5500
   2471 O205        22.397361    25.367770     8.022227 oc23   1 silica         -0.5500
   2472 O206        35.623471    28.610692    18.734292 oc23   1 silica         -0.5500
   2473 Si105       39.346740    30.489011     5.241921 sc4    1 silica          1.1000
   2474 Si106       37.307579    33.964990     7.189429 sc4    1 silica          1.1000
   2475 Si107       25.903899    26.026786    10.926980 sc4    1 silica          1.1000
   2476 Si108       20.118849    33.871271    12.661143 sc4    1 silica          1.1000
   2477 Si109       39.983675    32.936482     6.943837 sc4    1 silica          1.1000
   2478 Si110       29.844789    23.747945    13.169586 sc4    1 silica          1.1000
   2479 Si111       30.596056    31.887175    11.695652 sc4    1 silica          1.1000
   2480 Si112       20.289543    30.156147    11.968394 sc4    1 silica          1.1000
   2481 O207        30.772755    35.937982    10.882999 oc23   1 silica         -0.5500
   2482 O208        20.080591    33.444688    11.111995 oc23   1 silica         -0.5500
   2483 O209        29.652649    29.545812    15.045656 oc23   1 silica         -0.5500
   2484 O210        38.657318    37.175803     8.364714 oc23   1 silica         -0.5500
   2485 O211        27.649650    23.878747     5.398513 oc23   1 silica         -0.5500
   2486 O212        27.776884    32.571301    20.731092 oc23   1 silica         -0.5500
   2487 O213        26.465525    33.227127    22.765359 oc23   1 silica         -0.5500
   2488 O214        27.490486    35.068158    21.416193 oc23   1 silica         -0.5500
   2489 O215        21.954543    30.315701    15.311741 oc23   1 silica         -0.5500
   2490 O216        35.016734    26.572695     4.023661 oc24   1 silica         -0.6750
   2491 O217        35.537277    28.336951    22.377176 oc23   1 silica         -0.5500
   2492 O218        34.231481    21.901777    10.004172 oc23   1 silica         -0.5500
   2493 O219        32.779142    34.142817    10.870369 oc23   1 silica         -0.5500
   2494 O220        20.045396    35.349192     9.298575 oc23   1 silica         -0.5500
   2495 O221        39.503324    30.351954    16.051068 oc23   1 silica         -0.5500
   2496 O222        37.284076    33.497307     8.677882 oc23   1 silica         -0.5500
   2497 Si113       22.942455    31.182833    16.150670 sc4    1 silica          1.1000
   2498 Si114       33.159954    34.836553    14.215297 sc4    1 silica          1.1000
   2499 Si115       37.966968    25.654977    17.153343 sc4    1 silica          1.1000
   2500 Si116       24.626446    37.153886    10.764511 sc4    1 silica          1.1000
   2501 Si117       36.299266    26.149507    14.836727 sc4    1 silica          1.1000
   2502 Si118       24.926507    34.879643    12.823188 sc4    1 silica          1.1000
   2503 Si119       20.795089    29.561101    22.698431 sc4    1 silica          1.1000
   2504 Si120       27.271861    38.792895    14.437636 sc4    1 silica          1.1000
   2505 O223        26.636418    29.515030    12.391093 oc23   1 silica         -0.5500
   2506 O224        31.091040    39.092324    14.409377 oc23   1 silica         -0.5500
   2507 O225        21.098497    32.441742    21.840308 oc23   1 silica         -0.5500
   2508 O226        25.143402    31.389289    13.224026 oc23   1 silica         -0.5500
   2509 O227        37.822440    39.634750     8.003524 oc23   1 silica         -0.5500
   2510 O228        33.830833    37.965083    21.440203 oc23   1 silica         -0.5500
   2511 O229        26.639362    31.742951    11.293540 oc23   1 silica         -0.5500
   2512 O230        23.622768    28.812466    11.739917 oc23   1 silica         -0.5500
   2513 O231        24.237166    30.393926    16.748279 oc23   1 silica         -0.5500
   2514 O232        34.653576    36.946561     6.906465 oc23   1 silica         -0.5500
   2515 O233        38.926542    33.362445    13.163188 oc23   1 silica         -0.5500
   2516 O234        23.697714    21.565680    17.515772 oc23   1 silica         -0.5500
   2517 O235        21.477214    34.000912    18.834153 oc23   1 silica         -0.5500
   2518 O236        24.707680    24.969317    21.427855 oc23   1 silica         -0.5500
   2519 O237        30.300912    24.649505     5.597716 oc23   1 silica         -0.5500
   2520 O238        33.363383    20.993629     7.582926 oc23   1 silica         -0.5500
   2521 Si121       25.021812    29.683657    21.806384 sc4    1 silica          1.1000
   2522 Si122       24.255791    26.245051    17.093049 sc4    1 silica          1.1000
   2523 Si123       24.375929    32.796360     4.769080 sc4    1 silica          1.1000
   2524 Si124       38.355563    38.887732    14.505249 sc4    1 silica          1.1000
   2525 Si125       36.535875    30.393677     3.810577 sc4    1 silica          1.1000
   2526 Si126       23.718516    21.483106     8.836595 sc4    1 silica          1.1000
   2527 Si127       23.539679    38.097914    16.428298 sc4    1 silica          1.1000
   2528 Si128       20.021893    23.597464     5.642997 sc4    1 silica          1.1000
   2529 O239        39.545575    38.755397     6.465943 oc23   1 silica         -0.5500
   2530 O240        39.185159    40.194454    14.249410 oc23   1 silica         -0.5500
   2531 O241        24.592257    31.953178    24.142524 oc24   1 silica         -0.6750
   2532 O242        24.806893    20.885658    24.067191 oc23   1 silica         -0.5500
   2533 O243        23.362858    32.263253    15.129630 oc23   1 silica         -0.5500
   2534 O244        20.609721    24.009091     9.251974 oc23   1 silica         -0.5500
   2535 O245        37.692950    25.680540    18.797065 oc23   1 silica         -0.5500
   2536 O246        28.811966    35.616843    13.870410 oc23   1 silica         -0.5500
   2537 O247        21.351312    27.229143     6.310249 oc23   1 silica         -0.5500
   2538 O248        19.805079    21.057185    16.232070 oc23   1 silica         -0.5500
   2539 O249        34.752267    37.441299    19.074670 oc23   1 silica         -0.5500
   2540 O250        34.287761    23.689195    19.511108 oc23   1 silica         -0.5500
   2541 O251        20.432376    21.036387    22.566605 oc23   1 silica         -0.5500
   2542 O252        31.400941    21.364322     5.946782 oc23   1 silica         -0.5500
   2543 O253        21.832067    39.380482    10.647369 oc23   1 silica         -0.5500
   2544 Si129       21.635491    37.889095    10.867559 sc4    1 silica          1.1000
   2545 Si130       30.977193    40.745665     6.477392 sc4    1 silica          1.1000
   2546 Si131       25.003307    36.014382    17.851853 sc4    1 silica          1.1000
   2547 Si132       38.416237    26.992939    13.182547 sc4    1 silica          1.1000
   2548 Si133       22.214936    39.125094     3.906472 sc4    1 silica          1.1000
   2549 Si134       31.605417    25.284161     4.670776 sc4    1 silica          1.1000
   2550 Si135       26.966153    21.608065    21.579725 sc4    1 silica          1.1000
   2551 Si136       38.641917    21.535767    10.588868 sc4    1 silica          1.1000
   2552 O254        22.841346    29.194802     6.975920 oc23   1 silica         -0.5500
   2553 O255        23.933231    23.523094    23.604524 oc23   1 silica         -0.5500
   2554 O256        30.267208    23.379241    21.687589 oc23   1 silica         -0.5500
   2555 O257        22.676660    24.358363    10.806816 oc23   1 silica         -0.5500
   2556 O258        27.655898    37.344224    15.063882 oc23   1 silica         -0.5500
   2557 O259        23.199181    21.485840    22.124193 oc23   1 silica         -0.5500
   2558 O260        19.575809    23.078942     7.052928 oc23   1 silica         -0.5500
   2559 O261        23.350846    21.080885    15.030429 oc23   1 silica         -0.5500
   2560 O262        38.620913    27.417784     4.200295 oc24   1 silica         -0.6750
   2561 O263        34.371333    31.444557    14.702398 oc23   1 silica         -0.5500
   2562 O264        33.978062    33.670863    13.441950 oc23   1 silica         -0.5500
   2563 O265        30.035155    26.137577    21.662328 oc23   1 silica         -0.5500
   2564 O266        34.381048    28.086288    16.660694 oc23   1 silica         -0.5500
   2565 O267        37.488754    31.855189    16.296803 oc23   1 silica         -0.5500
   2566 O268        20.583678    36.372438    14.772230 oc23   1 silica         -0.5500
   2567 O269        30.795292    21.257220    23.356807 oc23   1 silica         -0.5500
   2568 Si137       39.275142    23.819663     8.588222 sc4    1 silica          1.1000
   2569 Si138       28.733956    36.263511    15.336269 sc4    1 silica          1.1000
   2570 Si139       37.129550    32.777466    22.081793 sc4    1 silica          1.1000
   2571 Si140       34.327390    23.951625    15.324914 sc4    1 silica          1.1000
   2572 Si141       22.122735    25.818799     6.425502 sc4    1 silica          1.1000
   2573 Si142       31.245849    21.168388    12.079776 sc4    1 silica          1.1000
   2574 Si143       21.214807    38.199753    18.358997 sc4    1 silica          1.1000
   2575 Si144       20.149287    36.762395    13.354955 sc4    1 silica          1.1000
   2576 O270        23.135361    25.730093    16.085205 oc23   1 silica         -0.5500
   2577 O271        23.047034    27.033543    13.653689 oc23   1 silica         -0.5500
   2578 O272        23.554474    39.785479    13.195720 oc23   1 silica         -0.5500
   2579 O273        24.860029    38.609516    11.173989 oc23   1 silica         -0.5500
   2580 O274        34.332713    38.699050    14.305927 oc23   1 silica         -0.5500
   2581 O275        35.322158    39.598747    12.156643 oc23   1 silica         -0.5500
   2582 O276        33.697270    22.286929     5.534187 oc23   1 silica         -0.5500
   2583 O277        26.015369    38.705016    13.445397 oc23   1 silica         -0.5500
   2584 O278        20.666688    39.448431    19.223659 oc23   1 silica         -0.5500
   2585 O279        37.190868    30.732465    12.574101 oc23   1 silica         -0.5500
   2586 O280        20.041726    29.688670    13.587280 oc23   1 silica         -0.5500
   2587 O281        37.456786    25.636540     5.548375 oc23   1 silica         -0.5500
   2588 O282        33.851837    23.995916    16.848684 oc23   1 silica         -0.5500
   2589 O283        36.355104    25.535778    21.260923 oc23   1 silica         -0.5500
   2590 O284        22.290807    31.912409    17.422922 oc23   1 silica         -0.5500
   2591 O285        20.307199    37.607027    10.084061 oc23   1 silica         -0.5500
   2592 Si145       25.073899    32.351214    22.696755 sc4    1 silica          1.1000
   2593 Si146       35.482932    39.558805    13.683105 sc4    1 silica          1.1000
   2594 Si147       36.402514    39.950296    23.118462 sc4    1 silica          1.1000
   2595 Si148       27.365189    28.304012     5.727701 sc4    1 silica          1.1000
   2596 Si149       34.092677    22.389432    11.567745 sc4    1 silica          1.1000
   2597 Si150       27.541445    39.987998    17.182971 sc4    1 silica          1.1000
   2598 Si151       26.623075    21.951123    17.397780 sc4    1 silica          1.1000
   2599 O286        25.407745    38.969434    19.934705 oc23   1 silica         -0.5500
   2600 O287        31.211783    23.347463    17.891373 oc23   1 silica         -0.5500
   2601 O288        35.647901    24.704733    15.215964 oc23   1 silica         -0.5500
   2602 O289        33.100973    40.354715     9.212730 oc23   1 silica         -0.5500
   2603 O290        26.066086    24.737134    19.486179 oc23   1 silica         -0.5500
   2604 O291        25.639435    22.207753    18.575647 oc23   1 silica         -0.5500
   2605 O292        38.189223    28.923338    22.235409 oc23   1 silica         -0.5500
   2606 O293        25.753928    24.286023    14.013757 oc23   1 silica         -0.5500
   2607 O294        26.181346    27.245427     5.140762 oc23   1 silica         -0.5500
   2608 O295        21.347604    39.842821     8.127418 oc23   1 silica         -0.5500
   2609 O296         0.039489    28.588901    23.277650 oc23   1 silica         -0.5500
   2610 O297        19.971862    30.298466    21.551844 oc23   1 silica         -0.5500
   2611 O298        29.314408    33.547688    18.957504 oc23   1 silica         -0.5500
   2612 O299        31.138733    36.819447     4.489775 oc23   1 silica         -0.5500
   2613 O300        33.626678    28.286819     5.483666 oc23   1 silica         -0.5500
   2614 O301        28.738875    31.435649     6.643002 oc24   1 silica         -0.6750
   2615 Si152       36.683911    21.942048    24.097999 sc4    1 silica          1.1000
   2616 Si153       33.028609    26.580899    21.485411 sc4    1 silica          1.1000
   2617 Si154       22.198125    24.200505     9.191011 sc4    1 silica          1.1000
   2618 Si155       29.086952    26.436715     7.501101 sc4    1 silica          1.1000
   2619 Si156       26.761355    23.961237    12.886197 sc4    1 silica          1.1000
   2620 Si157       31.056209    25.876762    15.258599 sc4    1 silica          1.1000
   2621 Si158       35.277569    32.314546     5.809975 sc4    1 silica          1.1000
   2622 Si159       25.184523    25.843408     5.498846 sc4    1 silica          1.1000
   2623 O302        34.615561    39.939815    19.719826 oc23   1 silica         -0.5500
   2624 O303        25.471604    31.153746    21.862382 oc23   1 silica         -0.5500
   2625 O304        22.105804    35.737534     5.416219 oc23   1 silica         -0.5500
   2626 O305        27.272748    30.959016    14.277409 oc23   1 silica         -0.5500
   2627 O306        37.516653    24.256026    16.489538 oc23   1 silica         -0.5500
   2628 O307        30.903456    39.134044     6.125471 oc23   1 silica         -0.5500
   2629 O308        37.875735    21.873355    17.197632 oc23   1 silica         -0.5500
   2630 O309        30.437700    40.517583    12.167621 oc23   1 silica         -0.5500
   2631 O310        23.196882    37.396346    23.738900 oc23   1 silica         -0.5500
   2632 O311        39.388790    31.595577     6.460465 oc23   1 silica         -0.5500
   2633 O312        33.590920    29.196914    11.531554 oc23   1 silica         -0.5500
   2634 O313        22.275649    28.924042     4.385665 oc24   1 silica         -0.6750
   2635 O314        27.239003    30.525721     9.138320 oc23   1 silica         -0.5500
   2636 O315        30.930871    21.231075    10.452981 oc23   1 silica         -0.5500
   2637 O316        30.305951    22.161432    12.931407 oc23   1 silica         -0.5500
   2638 O317        31.725675    24.919682     9.757307 oc23   1 silica         -0.5500
   2639 Si160       32.460009    32.202970    20.712961 sc4    1 silica          1.1000
   2640 Si161       32.516651    26.082264    24.279757 sc4    1 silica          1.1000
   2641 Si162       25.493333    24.072109    15.550534 sc4    1 silica          1.1000
   2642 Si163       27.820382    34.793629    12.879233 sc4    1 silica          1.1000
   2643 Si164       32.673878    38.771723     9.478987 sc4    1 silica          1.1000
   2644 Si165       37.933910    31.138707    11.283813 sc4    1 silica          1.1000
   2645 Si166       29.100579    27.994930    14.714603 sc4    1 silica          1.1000
   2646 Si167       32.050815    28.283463     5.336353 sc4    1 silica          1.1000
   2647 O318        25.361222    40.974372    12.035889 oc23   1 silica         -0.5500
   2648 O319        24.694132    37.367467    17.090240 oc23   1 silica         -0.5500
   2649 O320        31.390055    34.277303    18.042180 oc23   1 silica         -0.5500
   2650 O321        28.073600    33.240055    13.153250 oc23   1 silica         -0.5500
   2651 O322        30.171782    24.411562    11.778422 oc23   1 silica         -0.5500
   2652 O323        36.440610    40.272637    21.516149 oc23   1 silica         -0.5500
   2653 O324        37.879202    28.389073    12.803688 oc23   1 silica         -0.5500
   2654 O325        37.788616    21.803499    22.900042 oc23   1 silica         -0.5500
   2655 O326        30.244108    26.750976    11.024859 oc23   1 silica         -0.5500
   2656 O327        20.297725    31.815042    19.358083 oc23   1 silica         -0.5500
   2657 O328        25.513773    25.347095    16.521857 oc23   1 silica         -0.5500
   2658 O329        27.943908    35.248264    11.309806 oc23   1 silica         -0.5500
   2659 O330        38.568022    26.731131    23.542199 oc23   1 silica         -0.5500
   2660 O331        33.956896    24.061584    11.687980 oc23   1 silica         -0.5500
   2661 O332        27.445335    22.498645    20.362644 oc23   1 silica         -0.5500
   2662 O333        25.510507    29.242862    14.883045 oc23   1 silica         -0.5500
   2663 Si168       25.162267    40.261077    20.799248 sc4    1 silica          1.1000
   2664 Si169       29.503606    29.715020    19.499376 sc4    1 silica          1.1000
   2665 Si170       33.723717    22.562700    20.554388 sc4    1 silica          1.1000
   2666 Si171       28.429498    33.987404     8.310735 sc4    1 silica          1.1000
   2667 Si172       27.536284    37.014839     4.184289 sc4    1 silica          1.1000
   2668 Si173       36.058347    36.508830     6.240181 sc4    1 silica          1.1000
   2669 Si174       38.837887    28.268258    23.502020 sc4    1 silica          1.1000
   2670 Si175       36.522812    33.545823     9.999736 sc4    1 silica          1.1000
   2671 O334        21.170903    20.790821    18.092063 oc23   1 silica         -0.5500
   2672 O335        32.243640    31.837705     3.824859 oc24   1 silica         -0.6750
   2673 O336        30.160656    39.449093    23.533276 oc24   1 silica         -0.6750
   2674 O337        25.102924    33.364806     5.995697 oc23   1 silica         -0.5500
   2675 O338        33.350282    33.479531    21.190879 oc23   1 silica         -0.5500
   2676 O339        28.578664    29.202756    20.774578 oc23   1 silica         -0.5500
   2677 O340        24.796250    29.903661     8.445512 oc23   1 silica         -0.5500
   2678 O341        30.648546    25.677183    16.821370 oc23   1 silica         -0.5500
   2679 O342        28.499607    27.620676    22.868478 oc23   1 silica         -0.5500
   2680 O343        38.355039    36.569984    23.763712 oc23   1 silica         -0.5500
   2681 O344        35.931476    33.700073    21.505454 oc23   1 silica         -0.5500
   2682 O345        23.568344    26.060224     5.603547 oc23   1 silica         -0.5500
   2683 O346        31.122083    34.147996     4.599481 oc23   1 silica         -0.5500
   2684 O347        26.061006    31.428233     7.069879 oc23   1 silica         -0.5500
   2685 O348        27.761966    29.733707     4.926237 oc23   1 silica         -0.5500
   2686 O349        24.524892    26.189242    11.706040 oc23   1 silica         -0.5500
   2687 Si176       25.826211    32.947669     7.306430 sc4    1 silica          1.1000
   2688 Si177       30.223789    32.528956    23.754317 sc4    1 silica          1.1000
   2689 Si178       23.052474    30.143263    11.010859 sc4    1 silica          1.1000
   2690 Si179       25.137111    32.078260    11.769639 sc4    1 silica          1.1000
   2691 Si180       22.302903    33.517028    22.065763 sc4    1 silica          1.1000
   2692 Si181       22.760153    28.318513    20.733878 sc4    1 silica          1.1000
   2693 Si182       27.742615    33.617460    21.932427 sc4    1 silica          1.1000
   2694 Si183       33.982296    37.407491    15.139002 sc4    1 silica          1.1000
   2695 O350        34.108683    30.668329    23.398522 oc23   1 silica         -0.5500
   2696 O351        28.011878    22.355002    17.983915 oc23   1 silica         -0.5500
   2697 O352        27.965515    33.096575     9.578078 oc23   1 silica         -0.5500
   2698 O353        23.841073    33.055435    21.854426 oc23   1 silica         -0.5500
   2699 O354        30.507969    31.048966    13.099046 oc23   1 silica         -0.5500
   2700 O355        26.116399    28.586994    21.873855 oc23   1 silica         -0.5500
   2701 O356        38.503880    38.057891    18.816636 oc23   1 silica         -0.5500
   2702 O357        39.415921    26.045142    16.714426 oc23   1 silica         -0.5500
   2703 O358        27.962814    25.298248     7.566164 oc23   1 silica         -0.5500
   2704 O359        27.249888    33.587213     7.302016 oc23   1 silica         -0.5500
   2705 O360        34.653134    21.334366    20.963253 oc23   1 silica         -0.5500
   2706 O361        38.707592    22.304040    12.098592 oc23   1 silica         -0.5500
   2707 O362        31.219806    38.583621    10.163301 oc23   1 silica         -0.5500
   2708 O363        30.231974    39.744919    19.123987 oc23   1 silica         -0.5500
   2709 O364        30.093573    31.056548    23.209919 oc23   1 silica         -0.5500
   2710 O365        31.181104    29.825231    19.885482 oc23   1 silica         -0.5500
   2711 Si184       28.215549    32.469793    19.203120 sc4    1 silica          1.1000
   2712 Si185       33.458042    30.776053    11.118204 sc4    1 silica          1.1000
   2713 Si186       27.675652    28.064040    21.527787 sc4    1 silica          1.1000
   2714 Si187       28.563708    21.470055     3.812536 sc4    1 silica          1.1000
   2715 Si188       30.069505    27.196992    22.843760 sc4    1 silica          1.1000
   2716 Si189       32.859569    34.328349    17.281582 sc4    1 silica          1.1000
   2717 Si190       32.685934    29.062798    20.142784 sc4    1 silica          1.1000
   2718 Si191       26.536761    38.016044    19.515877 sc4    1 silica          1.1000
   2719 O366        32.032027    35.229866    13.135520 oc23   1 silica         -0.5500
   2720 O367        29.999678    33.666515     7.832012 oc23   1 silica         -0.5500
   2721 O368        23.552499    22.343069    12.139433 oc23   1 silica         -0.5500
   2722 O369        24.093645    37.512686     5.132050 oc23   1 silica         -0.5500
   2723 O370        21.253629    37.558056    12.508495 oc23   1 silica         -0.5500
   2724 O371        21.727892    30.770294    11.714751 oc23   1 silica         -0.5500
   2725 O372        38.814346    33.971742     6.809413 oc23   1 silica         -0.5500
   2726 O373        32.147046    25.763817    12.231740 oc23   1 silica         -0.5500
   2727 O374        33.178017    28.258978    18.874003 oc23   1 silica         -0.5500
   2728 O375        24.856843    21.794757     9.982599 oc23   1 silica         -0.5500
   2729 O376        27.455211    38.862086    18.419835 oc23   1 silica         -0.5500
   2730 O377        38.479651    36.613862    10.965178 oc23   1 silica         -0.5500
   2731 O378        23.020950    37.179782    10.302689 oc23   1 silica         -0.5500
   2732 O379        29.278287    32.118326    15.030359 oc23   1 silica         -0.5500
   2733 O380        33.107183    21.943873    24.263089 oc24   1 silica         -0.6750
   2734 O381        30.935264    26.484693    24.063461 oc23   1 silica         -0.5500
   2735 Si192       30.488656    40.229134    17.661715 sc4    1 silica          1.1000
   2736 Si193       30.195285    36.579099    21.526536 sc4    1 silica          1.1000
   2737 Si194       24.951099    38.820778     4.728639 sc4    1 silica          1.1000
   2738 Si195       34.528885    34.092890    22.070556 sc4    1 silica          1.1000
   2739 Si196       20.298532    21.031084     4.269372 sc4    1 silica          1.1000
   2740 Si197       20.416776    27.256034    10.893788 sc4    1 silica          1.1000
   2741 Si198       30.582186    34.168421    19.476854 sc4    1 silica          1.1000
   2742 Si199       29.767142    27.936844    10.053118 sc4    1 silica          1.1000
   2743 O382        25.600409    24.571198     4.519592 oc23   1 silica         -0.5500
   2744 O383        30.113246    35.545372    20.268827 oc23   1 silica         -0.5500
   2745 O384        19.190238    21.162963     3.089805 oc24   1 silica         -0.6750
   2746 O385        21.920798    28.668200    22.028204 oc23   1 silica         -0.5500
   2747 O386        26.385178    22.841081    16.124347 oc23   1 silica         -0.5500
   2748 O387        20.025722    35.424389    12.589541 oc23   1 silica         -0.5500
   2749 O388        30.716033    28.599547    22.292588 oc23   1 silica         -0.5500
   2750 O389        24.188465    20.573881    19.915488 oc23   1 silica         -0.5500
   2751 O390        31.122929    32.982388    20.399567 oc23   1 silica         -0.5500
   2752 O391        28.199543    27.756491    13.402714 oc23   1 silica         -0.5500
   2753 O392        35.784125    35.920206     4.830035 oc23   1 silica         -0.5500
   2754 O393        32.814982    21.581051    12.232755 oc23   1 silica         -0.5500
   2755 O394        23.838370    39.403478     3.687745 oc23   1 silica         -0.5500
   2756 O395        26.645045    23.381646     8.439638 oc23   1 silica         -0.5500
   2757 O396        26.785663    20.914619     7.521285 oc23   1 silica         -0.5500
   2758 O397        22.773617    34.106977     7.162777 oc23   1 silica         -0.5500
   2759 Si200       26.424281    23.170715     4.771228 sc4    1 silica          1.1000
   2760 Si201       29.163551    23.502253     5.641367 sc4    1 silica          1.1000
   2761 Si202       31.489350    34.696554    11.690907 sc4    1 silica          1.1000
   2762 Si203       31.136960    25.439653    11.160557 sc4    1 silica          1.1000
   2763 Si204       31.226297    24.319458     8.328094 sc4    1 silica          1.1000
   2764 Si205       34.034786    20.648086     9.032331 sc4    1 silica          1.1000
   2765 Si206       31.186828    30.053066    22.824993 sc4    1 silica          1.1000
   2766 Si207       31.925112    35.544542     4.977962 sc4    1 silica          1.1000
   2767 O398        30.503170    25.598669     7.506838 oc23   1 silica         -0.5500
   2768 O399        32.332535    35.723902     6.579214 oc23   1 silica         -0.5500
   2769 O400        34.066271    36.064101    14.338671 oc23   1 silica         -0.5500
   2770 O401        24.632210    36.257587    12.114692 oc23   1 silica         -0.5500
   2771 O402        28.864617    20.645435     5.144114 oc23   1 silica         -0.5500
   2772 O403        32.259766    25.269618    21.140005 oc23   1 silica         -0.5500
   2773 O404        28.852362    36.613944    22.416836 oc23   1 silica         -0.5500
   2774 O405        33.132017    24.659904     5.004946 oc23   1 silica         -0.5500
   2775 O406        36.375502    27.819632     5.705675 oc23   1 silica         -0.5500
   2776 O407        25.534253    22.049772     5.650644 oc23   1 silica         -0.5500
   2777 O408        31.223353    28.819511     6.652941 oc23   1 silica         -0.5500
   2778 O409        23.640668    35.586307     3.293446 oc24   1 silica         -0.6750
   2779 O410        32.559628    37.403223    15.665623 oc23   1 silica         -0.5500
   2780 O411        31.704712    36.361624    22.270609 oc23   1 silica         -0.5500
   2781 O412        27.229610    32.983633    18.077945 oc23   1 silica         -0.5500
   2782 Si208       24.915299    39.507181    12.479386 sc4    1 silica          1.1000
   2783 Si209       20.538728    33.830294     9.602409 sc4    1 silica          1.1000
   2784 Si210       31.210252    38.169010    15.636113 sc4    1 silica          1.1000
   2785 Si211       27.601433    22.116684     8.109807 sc4    1 silica          1.1000
   2786 Si212       34.696714    36.574253    17.801214 sc4    1 silica          1.1000
   2787 Si213       30.088131    39.340127    13.191069 sc4    1 silica          1.1000
   2788 Si214       27.871985    28.024100    17.468225 sc4    1 silica          1.1000
   2789 Si215       24.961460    21.791401    11.583940 sc4    1 silica          1.1000
   2790 O413        32.501736    25.318755    18.390042 oc23   1 silica         -0.5500
   2791 O414        31.050968    28.731840     9.414377 oc23   1 silica         -0.5500
   2792 O415        27.258313    26.751225    18.167750 oc23   1 silica         -0.5500
   2793 O416        27.044967    33.171940    15.504452 oc23   1 silica         -0.5500
   2794 O417        35.400650    22.024829    12.528090 oc23   1 silica         -0.5500
   2795 O418        30.608674    41.150000     7.974274 oc23   1 silica         -0.5500
   2796 O419        33.892473    33.178568    17.614382 oc23   1 silica         -0.5500
   2797 O420        29.318118    31.364927    10.811561 oc23   1 silica         -0.5500
   2798 O421        34.485747    22.512941    14.858564 oc23   1 silica         -0.5500
   2799 O422        35.692125    40.923203     8.537925 oc23   1 silica         -0.5500
   2800 O423        23.905778    29.377516    20.660552 oc23   1 silica         -0.5500
   2801 O424        38.606440    23.701459     4.651677 oc23   1 silica         -0.5500
   2802 O425        37.342573    32.661872    11.043178 oc23   1 silica         -0.5500
   2803 O426        27.365833    37.650903    20.824981 oc23   1 silica         -0.5500
   2804 O427        37.685693    33.801416    23.272503 oc23   1 silica         -0.5500
   2805 O428        21.110632    24.834167     5.629280 oc23   1 silica         -0.5500
   2806 O429        39.477886    34.532029    25.148196 oc24   1 silica         -0.6750
   2807 H1          34.542674    22.914712     2.530239 hoy    1 silica          0.4000
   2808 Si216       40.232700    23.689402    19.861379 sc4    1 silica          1.1000
   2809 O430        25.274627    38.957544    24.261367 oc23   1 silica         -0.5500
   2810 O431        25.991705    36.664824    23.014705 oc23   1 silica         -0.5500
   2811 O432        34.094693    39.384211    25.829519 oc24   1 silica         -0.6750
   2812 H2          32.119709    30.187151     4.223812 hoy    1 silica          0.4000
   2813 O433        33.942303    32.208482    25.673778 oc24   1 silica         -0.6750
   2814 O434        27.300927    32.539358     4.750524 oc23   1 silica         -0.5500
   2815 O435        30.281075    39.067090     3.573483 oc24   1 silica         -0.6750
   2816 H3          34.775837    33.822623     2.318822 hoy    1 silica          0.4000
   2817 O436        37.106933    24.968490     3.000756 oc24   1 silica         -0.6750
   2818 H4          21.364988    33.857169    23.974061 hoy    1 silica          0.4000
   2819 H5          22.398812    29.987036    23.943199 hoy    1 silica          0.4000
   2820 O437        40.063862    31.041094     3.921322 oc24   1 silica         -0.6750
   2821 H6          35.501378    26.005699     4.585987 hoy    1 silica          0.4000
   2822 O438        37.178572    30.901011     2.323399 oc24   1 silica         -0.6750
   2823 O439        35.631977    29.082562     3.663831 oc23   1 silica         -0.5500
   2824 H7          24.437110    31.016310    24.121934 hoy    1 silica          0.4000
   2825 O440        21.268184    39.931693     2.858023 oc24   1 silica         -0.6750
   2826 O441        31.178524    24.919144     3.117568 oc24   1 silica         -0.6750
   2827 H8          23.103556    29.375458     4.475105 hoy    1 silica          0.4000
   2828 O442        33.088074    26.929175    25.483050 oc24   1 silica         -0.6750
   2829 O443        27.049283    35.443987     4.514540 oc23   1 silica         -0.5500
   2830 O444        28.020507    36.883501     2.654665 oc24   1 silica         -0.6750
   2831 O445        38.411479    28.780772    25.033485 oc24   1 silica         -0.6750
   2832 H9          29.396039    39.424284    22.989615 hoy    1 silica          0.4000
   2833 O446        29.615238    32.528005    25.320486 oc24   1 silica         -0.6750
   2834 O447        31.907696    32.752193    23.762792 oc23   1 silica         -0.5500
   2835 O448        23.799870    27.216756    21.260286 oc24   1 silica         -0.6750
   2836 O449        29.184918    20.857441     2.409167 oc24   1 silica         -0.6750
   2837 O450        27.125195    22.259334     3.656843 oc23   1 silica         -0.5500
   2838 H10         19.583044    20.865078     2.291738 hoy    1 silica          0.4000
   2839 O451        31.765225    29.796848    24.312595 oc24   1 silica         -0.6750
   2840 H11         38.775642    34.329176    25.738611 hoy    1 silica          0.4000
   2841 H12         33.177535    31.974701    26.167629 hoy    1 silica          0.4000
   2842 H13         31.006418    38.788499     3.045934 hoy    1 silica          0.4000
   2843 H14         37.961044    25.080973     2.631204 hoy    1 silica          0.4000
   2844 H15         39.421788    31.401515     3.337758 hoy    1 silica          0.4000
   2845 H16         37.212424    30.158332     1.747642 hoy    1 silica          0.4000
   2846 H17         21.419144    39.498436     2.040174 hoy    1 silica          0.4000
   2847 H18         31.253336    25.700893     2.605329 hoy    1 silica          0.4000
   2848 H19         33.642765    26.374124    25.998903 hoy    1 silica          0.4000
   2849 H20         27.819020    37.686015     2.206944 hoy    1 silica          0.4000
   2850 H21         28.806440    33.003771    25.341713 hoy    1 silica          0.4000
   2851 H22         24.528373    27.245075    20.673885 hoy    1 silica          0.4000
   2852 H23         32.662153    29.511234    24.257395 hoy    1 silica          0.4000
   2853 Si217       24.932271    37.432475    24.011241 sc4    1 silica          1.1000
   2854 O452        25.234231    36.794919    25.482459 oc24   1 silica         -0.6750
   2855 H24         24.551487    36.170745    25.651903 hoy    1 silica          0.4000
   2856 Si218       26.831824    33.878604     3.819265 sc4    1 silica          1.1000
   2857 O453        27.526247    33.763548     2.369575 oc24   1 silica         -0.6750
   2858 H25         27.869975    34.605189     2.122019 hoy    1 silica          0.4000
   2859 O454        25.317522    33.383698     3.582076 oc23   1 silica         -0.5500
   2860 Si219       29.620358    22.416073    22.935902 sc4    1 silica          1.1000
   2861 O455        29.330777    23.318668    24.214788 oc24   1 silica         -0.6750
   2862 H26         28.848943    22.799689    24.831235 hoy    1 silica          0.4000
   2863 O456        23.005871    40.132017    24.559722 oc24   1 silica         -0.6750
   2864 O457        39.362746    22.977558    21.050695 oc23   1 silica         -0.5500
   2865 O458        40.078616    25.298248    19.475201 oc23   1 silica         -0.5500
   2866 O459        22.575027    25.620755    22.798882 oc23   1 silica         -0.5500
   2867 O460         0.523480    26.301895    21.543368 oc23   1 silica         -0.5500
   2868 Si220        0.240470    26.808153    20.045590 sc4    1 silica          1.1000
   2869 O461        39.417574    27.964147    19.981259 oc23   1 silica         -0.5500
   2870 Si221       39.319488    22.040284    22.447479 sc4    1 silica          1.1000
   2871 Si222       24.088202    24.978432    22.938641 sc4    1 silica          1.1000
   2872 O462        25.031568    25.834501    24.017426 oc24   1 silica         -0.6750
   2873 H27         25.911056    25.509561    23.992485 hoy    1 silica          0.4000
   2874 O463        39.983152    22.569123    23.888834 oc24   1 silica         -0.6750
   2875 H28         40.103178    23.497605    23.867256 hoy    1 silica          0.4000
   2876 O464        37.375388    22.244171    25.536072 oc24   1 silica         -0.6750
   2877 H29         38.269364    22.487381    25.369116 hoy    1 silica          0.4000
   2878 H30         36.670337    24.871155    23.498781 hoy    1 silica          0.4000
   2879 H31         29.161325    30.641993     6.891664 hoy    1 silica          0.4000
   2880 O465        24.514975    31.134813     4.864786 oc24   1 silica         -0.6750
   2881 H32         25.196848    30.891763     4.264667 hoy    1 silica          0.4000
   2882 H33         32.262156    32.359283     3.050238 hoy    1 silica          0.4000
   2883 H34         33.563732    40.100107    26.128461 hoy    1 silica          0.4000
   2884 H35         39.187652    28.870477    25.563934 hoy    1 silica          0.4000
   2885 H36         23.896105    28.596026    23.204169 hoy    1 silica          0.4000
   2886 H37         39.482940    27.737208     4.405847 hoy    1 silica          0.4000
   2887 H38         32.241390    21.802770    23.893995 hoy    1 silica          0.4000
   2888 H39         24.322051    35.035345     3.652768 hoy    1 silica          0.4000
   2889 H40         29.643809    21.534248     1.964395 hoy    1 silica          0.4000
   2890 H41         23.030321    40.778119    25.281439 hoy    1 silica          0.4000
   2891 Si7          0.465458    41.013151    19.479474 sc4    1 silica          1.1000
   2892 O13         15.045839    41.174819     4.480756 oc24   1 silica         -0.6750
   2893 O30         16.797355    41.130197    19.320947 oc23   1 silica         -0.5500
   2894 O42          0.184619     0.357473     9.995180 oc23   1 silica         -0.5500
   2895 O57          4.505338     0.018960     7.480137 oc23   1 silica         -0.5500
   2896 O59          1.436174     0.148912    20.540034 oc23   1 silica         -0.5500
   2897 O115         6.569374    40.959456    20.854609 oc23   1 silica         -0.5500
   2898 O120        17.287744    41.059472    10.370623 oc23   1 silica         -0.5500
   2899 Si68         1.712362    41.363872    22.007900 sc4    1 silica          1.1000
   2900 O152        10.973280     0.002886    17.751897 oc23   1 silica         -0.5500
   2901 Si83         5.643384    41.351485     6.378546 sc4    1 silica          1.1000
   2902 O194         6.384168    41.025456    17.038751 oc23   1 silica         -0.5500
   2903 Si205       13.815754     0.081209     8.919086 sc4    1 silica          1.1000
   2904 H1          15.086128    40.766082     3.640913 hoy    1 silica          0.4000
   2905 H31          9.865355     1.023259     1.837490 hoy    1 silica          0.4000
   2906 H32          0.576673    41.207964     2.972164 hoy    1 silica          0.4000
   2907 Si7         20.678176    41.039834    19.252201 sc4    1 silica          1.1000
   2908 O13         35.977274    41.058104     5.544456 oc24   1 silica         -0.6750
   2909 O30         36.802153    41.385792    19.226799 oc23   1 silica         -0.5500
   2910 O42         19.832856    40.854426     9.997718 oc23   1 silica         -0.5500
   2911 O57         23.843210     0.299232     7.622469 oc23   1 silica         -0.5500
   2912 O59         21.614648    41.352520    20.406626 oc23   1 silica         -0.5500
   2913 O115        26.498501    40.894324    21.281014 oc23   1 silica         -0.5500
   2914 O120        37.829939    41.100572    10.160987 oc23   1 silica         -0.5500
   2915 Si68        21.669517    41.187083    21.944254 sc4    1 silica          1.1000
   2916 O152        31.306603     0.087625    17.799845 oc23   1 silica         -0.5500
   2917 Si83        24.964887     0.175119     6.448544 sc4    1 silica          1.1000
   2918 O194        26.702413    41.254491    17.446860 oc23   1 silica         -0.5500
   2919 Si205       34.270224     0.039793     8.984367 sc4    1 silica          1.1000
   2920 H1          36.601349    41.170001     6.228896 hoy    1 silica          0.4000
   2921 H31         30.391378    41.214027     2.246757 hoy    1 silica          0.4000
   2922 H32         20.309218    41.428401     3.040918 hoy    1 silica          0.4000
   2923 O260        39.632977     3.001221     6.978753 oc23   1 silica         -0.5500
   2924 O260        39.554081    23.233483     7.093771 oc23   1 silica         -0.5500
   2925 O459         1.240994     3.436038    20.867523 oc23   1 silica         -0.5500
   2926 Si220        1.087044     4.415324    22.227737 sc4    1 silica          1.1000
   2927 O459         1.115179    23.981828    20.793796 oc23   1 silica         -0.5500
   2928 Si220        1.071635    24.960948    22.140458 sc4    1 silica          1.1000

@<TRIPOS>BOND
      1       1     448 1
      2       1     477 1
      3       1     760 1
      4       1    1256 1
      5       2      63 1
      6       2     298 1
      7       2     389 1
      8       2     552 1
      9       3     505 1
     10       3     627 1
     11       3     629 1
     12       3    1524 1
     13       4     108 1
     14       4     126 1
     15       4     268 1
     16       4     293 1
     17       5     219 1
     18       5     242 1
     19       5     486 1
     20       5     521 1
     21       6      20 1
     22       6     147 1
     23       6     452 1
     24       6     454 1
     25       7      31 1
     26       7     149 1
     27       7     273 1
     28       7     558 1
     29       8     422 1
     30       8     560 1
     31       9      24 1
     32       9      26 1
     33      10      95 1
     34      10     164 1
     35      11     304 1
     36      11     444 1
     37      12     350 1
     38      12     418 1
     39      13     281 1
     40      13     908 1
     41      14     210 1
     42      14     348 1
     43      15      23 1
     44      15     567 1
     45      16     141 1
     46      16     350 1
     47      17     183 1
     48      17     495 1
     49      18     539 1
     50      18     585 1
     51      19     464 1
     52      19     589 1
     53      20    1655 1
     54      21     212 1
     55      21     906 1
     56      22      50 1
     57      22     606 1
     58      23     150 1
     59      23     331 1
     60      23     577 1
     61      24     250 1
     62      24     485 1
     63      24     551 1
     64      25     316 1
     65      25     438 1
     66      25     598 1
     67      25     645 1
     68      26     247 1
     69      26     272 1
     70      26     458 1
     71      27      38 1
     72      27     224 1
     73      27     454 1
     74      27    2893 1
     75      28     245 1
     76      28     385 1
     77      28     412 1
     78      28     598 1
     79      29      39 1
     80      29      61 1
     81      29     401 1
     82      29     402 1
     83      30      40 1
     84      30      42 1
     85      30     600 1
     86      30     614 1
     87      31     490 1
     88      32     168 1
     89      32     393 1
     90      33      90 1
     91      33     610 1
     92      34     211 1
     93      34     280 1
     94      35      96 1
     95      35     276 1
     96      36     211 1
     97      36     704 1
     98      37     630 1
     99      37    1630 1
    100      38     280 1
    101      39     235 1
    102      40     164 1
    103      41     258 1
    104      41     588 1
    105      42      96 1
    106      43     585 1
    107      43     608 1
    108      44     399 1
    109      44    1584 1
    110      45     109 1
    111      45     122 1
    112      45     133 1
    113      45     341 1
    114      46     285 1
    115      46     363 1
    116      46     378 1
    117      46     459 1
    118      47     134 1
    119      47     336 1
    120      47     365 1
    121      47     448 1
    122      48      89 1
    123      48     122 1
    124      48     386 1
    125      48     387 1
    126      49     343 1
    127      49     415 1
    128      49     481 1
    129      49    1666 1
    130      50     100 1
    131      50     199 1
    132      50     583 1
    133      51     294 1
    134      51     631 1
    135      51     687 1
    136      51    1084 1
    137      52     242 1
    138      52     296 1
    139      52     425 1
    140      52    2900 1
    141      53      73 1
    142      53     372 1
    143      54      96 1
    144      54     446 1
    145      55     168 1
    146      55    2009 1
    147      56     257 1
    148      56     353 1
    149      57     168 1
    150      57     276 1
    151      58     118 1
    152      58     493 1
    153      59     562 1
    154      59     955 1
    155      60      70 1
    156      60    1290 1
    157      61     119 1
    158      62     519 1
    159      62     609 1
    160      63      72 1
    161      64     373 1
    162      64    1562 1
    163      65     277 1
    164      65     394 1
    165      66     444 1
    166      66     612 1
    167      67     139 1
    168      67     185 1
    169      68     157 1
    170      68     182 1
    171      68     220 1
    172      68     633 1
    173      69     135 1
    174      69     269 1
    175      69     295 1
    176      69     298 1
    177      70     202 1
    178      70     433 1
    179      70    1798 1
    180      71      83 1
    181      71      99 1
    182      71     317 1
    183      71     520 1
    184      72     366 1
    185      72     413 1
    186      72     613 1
    187      73      88 1
    188      73     181 1
    189      73     343 1
    190      74     173 1
    191      74     407 1
    192      74     634 1
    193      74    2892 1
    194      75      76 1
    195      75     128 1
    196      75     177 1
    197      75     578 1
    198      76     446 1
    199      77     489 1
    200      77     611 1
    201      78     471 1
    202      78     708 1
    203      79    1654 1
    204      79    2926 1
    205      80     441 1
    206      80     465 1
    207      81     115 1
    208      81    1446 1
    209      82      97 1
    210      82     326 1
    211      83     395 1
    212      84     277 1
    213      84     372 1
    214      85     330 1
    215      85     610 1
    216      86     513 1
    217      86     518 1
    218      87     142 1
    219      87     561 1
    220      88     399 1
    221      89     537 1
    222      90     197 1
    223      90     307 1
    224      90     532 1
    225      91     241 1
    226      91     520 1
    227      91     635 1
    228      91     657 1
    229      92     190 1
    230      92     272 1
    231      92     410 1
    232      92     478 1
    233      93     337 1
    234      93     460 1
    235      93     522 1
    236      93     620 1
    237      94     171 1
    238      94     439 1
    239      94     510 1
    240      94     636 1
    241      95     107 1
    242      95     111 1
    243      95     319 1
    244      96     176 1
    245      97     101 1
    246      97     197 1
    247      97     483 1
    248      98     234 1
    249      98     588 1
    250      99     542 1
    251     100     232 1
    252     101     491 1
    253     102     114 1
    254     102     257 1
    255     103     469 1
    256     103    1749 1
    257     104     115 1
    258     104     516 1
    259     105     209 1
    260     105     279 1
    261     106     327 1
    262     106     373 1
    263     107     495 1
    264     108     120 1
    265     109     183 1
    266     110     300 1
    267     110     493 1
    268     111     186 1
    269     112     117 1
    270     112     283 1
    271     113     333 1
    272     113     435 1
    273     113     481 1
    274     113    1647 1
    275     114     156 1
    276     114     271 1
    277     114     359 1
    278     115     136 1
    279     115     152 1
    280     116     192 1
    281     116     201 1
    282     116     265 1
    283     116     406 1
    284     117     203 1
    285     117     290 1
    286     117     386 1
    287     118     310 1
    288     118     335 1
    289     118     355 1
    290     119     194 1
    291     119    1507 1
    292     119    1971 1
    293     120     133 1
    294     120     223 1
    295     120     390 1
    296     121     489 1
    297     121     536 1
    298     123     233 1
    299     123     301 1
    300     124     541 1
    301     124     609 1
    302     125     212 1
    303     125     235 1
    304     126     609 1
    305     127     161 1
    306     127     349 1
    307     128     590 1
    308     129     207 1
    309     129     348 1
    310     130     233 1
    311     130     447 1
    312     131     324 1
    313     131     541 1
    314     132     305 1
    315     132     586 1
    316     134     142 1
    317     135     163 1
    318     136     281 1
    319     137     314 1
    320     137     597 1
    321     137     626 1
    322     137     632 1
    323     138     249 1
    324     138     274 1
    325     138     342 1
    326     138     384 1
    327     139     380 1
    328     139     388 1
    329     139     596 1
    330     140     147 1
    331     140     617 1
    332     140     621 1
    333     140     923 1
    334     141     293 1
    335     141     526 1
    336     141    1487 1
    337     142     246 1
    338     142     533 1
    339     143     157 1
    340     143     222 1
    341     143     336 1
    342     143     603 1
    343     144     158 1
    344     144     437 1
    345     144     453 1
    346     144     637 1
    347     145     353 1
    348     145     399 1
    349     146     372 1
    350     146     543 1
    351     148     443 1
    352     148     567 1
    353     149     440 1
    354     150     301 1
    355     151     373 1
    356     151    2009 1
    357     152    1722 1
    358     153     209 1
    359     153     419 1
    360     154     253 1
    361     154     445 1
    362     155     305 1
    363     155     537 1
    364     156     302 1
    365     158     492 1
    366     159     161 1
    367     159    1746 1
    368     160     347 1
    369     160     638 1
    370     161     450 1
    371     161     583 1
    372     162     310 1
    373     162     555 1
    374     162    1763 1
    375     162    1860 1
    376     163     190 1
    377     163     321 1
    378     163     390 1
    379     164     180 1
    380     164     545 1
    381     165     171 1
    382     165     180 1
    383     165     497 1
    384     165     508 1
    385     166     369 1
    386     166     433 1
    387     166     780 1
    388     166     950 1
    389     167     251 1
    390     167     338 1
    391     167     402 1
    392     167     511 1
    393     168     245 1
    394     169     232 1
    395     169     514 1
    396     170     351 1
    397     170     446 1
    398     172     376 1
    399     172     684 1
    400     173     208 1
    401     174     420 1
    402     174     443 1
    403     175     206 1
    404     175     374 1
    405     176     537 1
    406     177     639 1
    407     178     254 1
    408     178     538 1
    409     179     325 1
    410     179     327 1
    411     181     257 1
    412     182     419 1
    413     183     192 1
    414     183     555 1
    415     184     193 1
    416     184     737 1
    417     184    1090 1
    418     184    1799 1
    419     185     425 1
    420     185     503 1
    421     185     613 1
    422     186     266 1
    423     186     340 1
    424     186     592 1
    425     187     274 1
    426     187     364 1
    427     187     496 1
    428     187    1480 1
    429     188     201 1
    430     188     335 1
    431     188     622 1
    432     188     898 1
    433     189     220 1
    434     189     246 1
    435     189     498 1
    436     189    1118 1
    437     191     278 1
    438     191     376 1
    439     193     229 1
    440     194     231 1
    441     195     229 1
    442     195     353 1
    443     196     492 1
    444     196     562 1
    445     198     350 1
    446     198    1844 1
    447     199     512 1
    448     200     418 1
    449     200     860 1
    450     202     374 1
    451     203     253 1
    452     204     395 1
    453     204    1556 1
    454     205     281 1
    455     205    1652 1
    456     206     450 1
    457     206     547 1
    458     206     601 1
    459     207     264 1
    460     207     339 1
    461     207     487 1
    462     208     412 1
    463     208     624 1
    464     208     640 1
    465     209     505 1
    466     209    1648 1
    467     210     287 1
    468     210     344 1
    469     210     428 1
    470     211     484 1
    471     211    1522 1
    472     212    1463 1
    473     212    1975 1
    474     213     287 1
    475     213     342 1
    476     213     429 1
    477     213     575 1
    478     214     299 1
    479     214     351 1
    480     215     516 1
    481     215     641 1
    482     216     354 1
    483     216     564 1
    484     217     258 1
    485     217     608 1
    486     218     300 1
    487     218     446 1
    488     219     254 1
    489     221     441 1
    490     221     542 1
    491     222     563 1
    492     223    1492 1
    493     224    2907 1
    494     225     329 1
    495     225     642 1
    496     226     352 1
    497     226     886 1
    498     227     445 1
    499     227     470 1
    500     228     301 1
    501     228     444 1
    502     229     403 1
    503     229    1110 1
    504     230     260 1
    505     230     460 1
    506     230     502 1
    507     230     509 1
    508     231     315 1
    509     231     411 1
    510     231    1764 1
    511     232     378 1
    512     232     502 1
    513     233     528 1
    514     233     581 1
    515     234     346 1
    516     234     368 1
    517     234     407 1
    518     235     381 1
    519     235     546 1
    520     236     517 1
    521     236    2138 1
    522     237     276 1
    523     237     469 1
    524     238     304 1
    525     238     445 1
    526     239     306 1
    527     239     565 1
    528     240     352 1
    529     240     442 1
    530     241     563 1
    531     243     377 1
    532     243     393 1
    533     244     330 1
    534     244     422 1
    535     247     276 1
    536     248     606 1
    537     248    1746 1
    538     249     466 1
    539     250     396 1
    540     251     565 1
    541     252     331 1
    542     252     334 1
    543     252     451 1
    544     252     487 1
    545     253     288 1
    546     253     389 1
    547     254     428 1
    548     254     615 1
    549     255     269 1
    550     255     270 1
    551     255     430 1
    552     255     696 1
    553     256     290 1
    554     256     309 1
    555     256     524 1
    556     256     557 1
    557     257     391 1
    558     258     461 1
    559     258    1346 1
    560     259     451 1
    561     259     475 1
    562     259     557 1
    563     259     616 1
    564     260     420 1
    565     261     514 1
    566     261     515 1
    567     262     470 1
    568     262     611 1
    569     263     328 1
    570     263     467 1
    571     264     611 1
    572     265     468 1
    573     266     468 1
    574     267     328 1
    575     267     515 1
    576     268     279 1
    577     270     282 1
    578     271     328 1
    579     273     465 1
    580     275     560 1
    581     275     607 1
    582     277     604 1
    583     277     616 1
    584     278     358 1
    585     278     379 1
    586     278     383 1
    587     279     526 1
    588     279    1595 1
    589     280     361 1
    590     280     414 1
    591     281     456 1
    592     282     291 1
    593     282     317 1
    594     282     414 1
    595     283     284 1
    596     283     295 1
    597     283     619 1
    598     284     464 1
    599     285    1742 1
    600     286     440 1
    601     286    1145 1
    602     288     327 1
    603     289     394 1
    604     289     607 1
    605     291     441 1
    606     292     375 1
    607     292     471 1
    608     294     488 1
    609     296     490 1
    610     297     397 1
    611     297     442 1
    612     299     457 1
    613     299     643 1
    614     299    1728 1
    615     300     322 1
    616     300     550 1
    617     301     511 1
    618     302     308 1
    619     302     573 1
    620     302    1784 1
    621     303     457 1
    622     303     550 1
    623     303    1602 1
    624     303    1691 1
    625     304     462 1
    626     304     476 1
    627     305     524 1
    628     305     620 1
    629     306     411 1
    630     306     549 1
    631     306    1546 1
    632     307     586 1
    633     308     606 1
    634     309     470 1
    635     311     584 1
    636     311     585 1
    637     312     518 1
    638     312     536 1
    639     313     417 1
    640     313     518 1
    641     314     518 1
    642     315     323 1
    643     316     375 1
    644     318     421 1
    645     318    2903 1
    646     319     586 1
    647     320     606 1
    648     320    1605 1
    649     321    1674 1
    650     322     495 1
    651     323     339 1
    652     323     359 1
    653     323     415 1
    654     324     387 1
    655     324     544 1
    656     324     593 1
    657     325     361 1
    658     325     452 1
    659     325     527 1
    660     326     404 1
    661     326     556 1
    662     326     594 1
    663     327     426 1
    664     328     594 1
    665     329     435 1
    666     329     571 1
    667     329    1878 1
    668     330     382 1
    669     330     408 1
    670     332     607 1
    671     332     610 1
    672     333     516 1
    673     334     515 1
    674     337     515 1
    675     338     514 1
    676     340     493 1
    677     341    1745 1
    678     344     698 1
    679     345     375 1
    680     345     585 1
    681     346    2903 1
    682     347     449 1
    683     347     525 1
    684     347     623 1
    685     348     401 1
    686     348     482 1
    687     349     499 1
    688     349     683 1
    689     349     706 1
    690     350     356 1
    691     351     644 1
    692     351     645 1
    693     352     553 1
    694     352    2895 1
    695     353     473 1
    696     354     628 1
    697     354    2069 1
    698     354    2923 1
    699     355    1513 1
    700     356    1627 1
    701     357     417 1
    702     357     646 1
    703     358     768 1
    704     360     442 1
    705     360    1837 1
    706     362     394 1
    707     362     467 1
    708     363     397 1
    709     364     906 1
    710     365     609 1
    711     366     490 1
    712     367    2140 1
    713     367    2899 1
    714     368    1097 1
    715     369     370 1
    716     370     416 1
    717     370     548 1
    718     370     556 1
    719     371     453 1
    720     371     618 1
    721     371    1094 1
    722     371    1322 1
    723     372     473 1
    724     373     478 1
    725     374     580 1
    726     374     647 1
    727     375     648 1
    728     376     486 1
    729     376    2897 1
    730     377     531 1
    731     377    2898 1
    732     377    2910 1
    733     379     698 1
    734     380     684 1
    735     381     442 1
    736     382     394 1
    737     383    2899 1
    738     384     953 1
    739     385     649 1
    740     388     540 1
    741     391     400 1
    742     392     684 1
    743     392     912 1
    744     393    1803 1
    745     393    1827 1
    746     395     506 1
    747     395     627 1
    748     396     413 1
    749     396     426 1
    750     396     621 1
    751     397     507 1
    752     397     628 1
    753     398     461 1
    754     398     462 1
    755     398     579 1
    756     398    1181 1
    757     399     409 1
    758     400     548 1
    759     400     573 1
    760     400    1641 1
    761     403     605 1
    762     404     605 1
    763     405     418 1
    764     405     519 1
    765     406     418 1
    766     408     605 1
    767     409     721 1
    768     410     469 1
    769     416    1605 1
    770     417     449 1
    771     417     523 1
    772     419     477 1
    773     419    1011 1
    774     420     432 1
    775     420     510 1
    776     421     485 1
    777     421     579 1
    778     421     617 1
    779     422     554 1
    780     422    1012 1
    781     423     429 1
    782     423     521 1
    783     423     572 1
    784     423    2902 1
    785     424     488 1
    786     424     543 1
    787     427     468 1
    788     427    1315 1
    789     430     494 1
    790     431     444 1
    791     431     466 1
    792     432     447 1
    793     434     494 1
    794     434    1772 1
    795     436     536 1
    796     436     566 1
    797     437     590 1
    798     438     471 1
    799     439     705 1
    800     440     479 1
    801     440     702 1
    802     441     596 1
    803     443     528 1
    804     443     591 1
    805     445     503 1
    806     447     507 1
    807     447     568 1
    808     455     610 1
    809     455    1124 1
    810     456     677 1
    811     458     537 1
    812     459     711 1
    813     463     587 1
    814     463     588 1
    815     464     500 1
    816     464     576 1
    817     465     559 1
    818     465     650 1
    819     466     482 1
    820     466     572 1
    821     467     475 1
    822     467     483 1
    823     468     532 1
    824     469     625 1
    825     470     577 1
    826     471     600 1
    827     472     605 1
    828     472    1340 1
    829     474     541 1
    830     474     566 1
    831     476     587 1
    832     479     697 1
    833     480     567 1
    834     480     587 1
    835     484     494 1
    836     488     893 1
    837     488    1301 1
    838     489     501 1
    839     489     535 1
    840     490     530 1
    841     491     522 1
    842     491     529 1
    843     491     545 1
    844     492     651 1
    845     492     652 1
    846     493     578 1
    847     494     653 1
    848     495     625 1
    849     496    2891 1
    850     497     654 1
    851     498     655 1
    852     499     512 1
    853     500     563 1
    854     501     538 1
    855     504     538 1
    856     504     540 1
    857     506     563 1
    858     508     590 1
    859     509     512 1
    860     512     529 1
    861     513     534 1
    862     513     656 1
    863     513     657 1
    864     514     549 1
    865     516     523 1
    866     517     571 1
    867     517     623 1
    868     517     658 1
    869     519     593 1
    870     519     602 1
    871     525     538 1
    872     527    1562 1
    873     530     715 1
    874     531    1655 1
    875     533     560 1
    876     534     589 1
    877     535     542 1
    878     536     604 1
    879     539     595 1
    880     539     659 1
    881     539     660 1
    882     540     559 1
    883     540     574 1
    884     541     619 1
    885     542     552 1
    886     543     554 1
    887     543     626 1
    888     544     586 1
    889     546     612 1
    890     547     562 1
    891     551     587 1
    892     553     612 1
    893     558     701 1
    894     560     946 1
    895     561     569 1
    896     561     597 1
    897     561     603 1
    898     562     580 1
    899     564     570 1
    900     564     661 1
    901     564     777 1
    902     565    1498 1
    903     565    1594 1
    904     566     569 1
    905     566     576 1
    906     567     614 1
    907     568     584 1
    908     570     662 1
    909     574     589 1
    910     575    1214 1
    911     581     608 1
    912     582     608 1
    913     582    2901 1
    914     584     599 1
    915     584     660 1
    916     588     591 1
    917     589     663 1
    918     590     592 1
    919     595    1097 1
    920     599    2901 1
    921     601     664 1
    922     602     607 1
    923     611     615 1
    924     612    1198 1
    925     618     983 1
    926     622    1315 1
    927     624    1797 1
    928     629     665 1
    929     630     689 1
    930     630     690 1
    931     630     691 1
    932     631     677 1
    933     632     677 1
    934     633     666 1
    935     634     667 1
    936     635     668 1
    937     636     680 1
    938     637     669 1
    939     640     709 1
    940     643     712 1
    941     644     670 1
    942     647    1290 1
    943     648     671 1
    944     650     672 1
    945     651     680 1
    946     652     673 1
    947     653     674 1
    948     656     713 1
    949     658     675 1
    950     659    2905 1
    951     661    2906 1
    952     663     676 1
    953     677     678 1
    954     678     679 1
    955     680     681 1
    956     680     683 1
    957     681     682 1
    958     684     685 1
    959     685     686 1
    960     687     688 1
    961     689     692 1
    962     690     697 1
    963     691     695 1
    964     692     694 1
    965     692    1522 1
    966     692    2136 1
    967     693     698 1
    968     693    2926 1
    969     694     695 1
    970     695     696 1
    971     695    1679 1
    972     697     700 1
    973     697    1810 1
    974     698     699 1
    975     699     710 1
    976     700     714 1
    977     702     703 1
    978     706     707 1
    979     715    1174 1
    980     715    1203 1
    981     715    2893 1
    982     716     781 1
    983     716    1024 1
    984     716    1115 1
    985     716    1278 1
    986     717    1231 1
    987     717    1355 1
    988     717    1357 1
    989     717    2247 1
    990     718     828 1
    991     718     846 1
    992     718     993 1
    993     718    1019 1
    994     719     942 1
    995     719     967 1
    996     719    1212 1
    997     719    1247 1
    998     720     736 1
    999     720     867 1
   1000     720    1178 1
   1001     720    1180 1
   1002     721     805 1
   1003     721    1222 1
   1004     721    2396 1
   1005     722     747 1
   1006     722     869 1
   1007     722     998 1
   1008     722    1284 1
   1009     723    1148 1
   1010     723    1286 1
   1011     724     740 1
   1012     724     742 1
   1013     725     815 1
   1014     725     884 1
   1015     726    1030 1
   1016     726    1170 1
   1017     727    1076 1
   1018     727    1144 1
   1019     728    1006 1
   1020     728    2899 1
   1021     729     933 1
   1022     729    1074 1
   1023     730     739 1
   1024     730    1293 1
   1025     731     861 1
   1026     731    1076 1
   1027     732     905 1
   1028     732    1221 1
   1029     733    1265 1
   1030     733    1311 1
   1031     734    1190 1
   1032     734    1316 1
   1033     735     792 1
   1034     735    1358 1
   1035     736    2383 1
   1036     737     935 1
   1037     738     767 1
   1038     738    1334 1
   1039     739     870 1
   1040     739    1057 1
   1041     739    1303 1
   1042     740     975 1
   1043     740    1211 1
   1044     740    1277 1
   1045     741    1042 1
   1046     741    1164 1
   1047     741    1326 1
   1048     741    1375 1
   1049     742     972 1
   1050     742     997 1
   1051     742    1184 1
   1052     743     754 1
   1053     743     760 1
   1054     743     948 1
   1055     743    1180 1
   1056     744     970 1
   1057     744    1111 1
   1058     744    1138 1
   1059     744    1326 1
   1060     745     755 1
   1061     745     778 1
   1062     745    1127 1
   1063     745    1128 1
   1064     746     756 1
   1065     746     758 1
   1066     746    1328 1
   1067     746    1342 1
   1068     747    1216 1
   1069     748     888 1
   1070     748    1119 1
   1071     749     810 1
   1072     749    1338 1
   1073     750     934 1
   1074     750    1005 1
   1075     751     816 1
   1076     751    1001 1
   1077     752     934 1
   1078     752    1432 1
   1079     753    1359 1
   1080     753    2358 1
   1081     754    1005 1
   1082     755     960 1
   1083     756     884 1
   1084     757     983 1
   1085     757    1314 1
   1086     758     816 1
   1087     759    1311 1
   1088     759    1336 1
   1089     761    1125 1
   1090     761    2309 1
   1091     762     829 1
   1092     762     842 1
   1093     762     853 1
   1094     762    1067 1
   1095     763    1010 1
   1096     763    1089 1
   1097     763    1104 1
   1098     763    1185 1
   1099     764     854 1
   1100     764    1062 1
   1101     764    1091 1
   1102     764    1174 1
   1103     765     809 1
   1104     765     842 1
   1105     765    1112 1
   1106     765    1113 1
   1107     766    1069 1
   1108     766    1141 1
   1109     766    1207 1
   1110     766    2395 1
   1111     767     820 1
   1112     767     922 1
   1113     767    1309 1
   1114     768    1020 1
   1115     768    1360 1
   1116     768    1414 1
   1117     769     946 1
   1118     769     967 1
   1119     769    1022 1
   1120     769    1151 1
   1121     770     791 1
   1122     770    1098 1
   1123     771     816 1
   1124     771    1172 1
   1125     772     888 1
   1126     772    2740 1
   1127     773     982 1
   1128     773    1079 1
   1129     774     888 1
   1130     774    1001 1
   1131     775     838 1
   1132     775    1219 1
   1133     776    1288 1
   1134     776    2901 1
   1135     777     788 1
   1136     778     839 1
   1137     779    1245 1
   1138     779    1337 1
   1139     780    2551 1
   1140     781     790 1
   1141     782    1099 1
   1142     782    2287 1
   1143     783    1002 1
   1144     783    1120 1
   1145     784    1170 1
   1146     784    1340 1
   1147     785     859 1
   1148     785     907 1
   1149     786     877 1
   1150     786     904 1
   1151     786     943 1
   1152     786    1362 1
   1153     787     855 1
   1154     787     994 1
   1155     787    1021 1
   1156     787    1024 1
   1157     788     925 1
   1158     788    1159 1
   1159     788    2529 1
   1160     789     801 1
   1161     789     819 1
   1162     789    1043 1
   1163     789    1246 1
   1164     790    1092 1
   1165     790    1139 1
   1166     790    1341 1
   1167     791     808 1
   1168     791     903 1
   1169     791    1069 1
   1170     792     894 1
   1171     792    1133 1
   1172     792    1325 1
   1173     793     794 1
   1174     793     848 1
   1175     793     899 1
   1176     793    1304 1
   1177     794    1172 1
   1178     795    1215 1
   1179     795    1339 1
   1180     796    1197 1
   1181     796    1363 1
   1182     797    2382 1
   1183     797    2928 1
   1184     798    1167 1
   1185     798    1191 1
   1186     799     835 1
   1187     799    2165 1
   1188     800     817 1
   1189     800    1052 1
   1190     801    1121 1
   1191     802    1002 1
   1192     802    1098 1
   1193     803     955 1
   1194     803    1078 1
   1195     804    1056 1
   1196     804    1338 1
   1197     805     908 1
   1198     806    1239 1
   1199     806    1244 1
   1200     807     862 1
   1201     807    1287 1
   1202     808    1125 1
   1203     809    1263 1
   1204     810     920 1
   1205     810    1033 1
   1206     810    1258 1
   1207     811     966 1
   1208     811    1246 1
   1209     811    1364 1
   1210     811    1387 1
   1211     812     913 1
   1212     812     997 1
   1213     812    1136 1
   1214     812    1204 1
   1215     813    1063 1
   1216     813    1186 1
   1217     813    1248 1
   1218     813    1348 1
   1219     814     891 1
   1220     814    1165 1
   1221     814    1236 1
   1222     814    1365 1
   1223     815     827 1
   1224     815     831 1
   1225     815    1045 1
   1226     816     897 1
   1227     817     821 1
   1228     817     920 1
   1229     817    1209 1
   1230     818     959 1
   1231     818    1314 1
   1232     819    1268 1
   1233     820     957 1
   1234     821    1217 1
   1235     822     834 1
   1236     822     982 1
   1237     823    1195 1
   1238     823    2480 1
   1239     824     835 1
   1240     824    1242 1
   1241     825     932 1
   1242     825    1004 1
   1243     826    1053 1
   1244     826    1099 1
   1245     827    1221 1
   1246     828     840 1
   1247     829     905 1
   1248     830    1026 1
   1249     830    1219 1
   1250     831     909 1
   1251     832     837 1
   1252     832    1008 1
   1253     833    1059 1
   1254     833    1161 1
   1255     833    1207 1
   1256     833    2375 1
   1257     834     876 1
   1258     834     996 1
   1259     834    1085 1
   1260     835     856 1
   1261     835     872 1
   1262     836     915 1
   1263     836     924 1
   1264     836     990 1
   1265     836    1132 1
   1266     837     926 1
   1267     837    1016 1
   1268     837    1112 1
   1269     838    1036 1
   1270     838    1061 1
   1271     838    1081 1
   1272     839     917 1
   1273     839    2230 1
   1274     839    2702 1
   1275     840     853 1
   1276     840     947 1
   1277     840    1116 1
   1278     841    1215 1
   1279     841    1262 1
   1280     843     958 1
   1281     843    1027 1
   1282     844    1267 1
   1283     844    1337 1
   1284     845     935 1
   1285     845     960 1
   1286     846    1337 1
   1287     847     881 1
   1288     847    1075 1
   1289     848    1317 1
   1290     849     930 1
   1291     849    1074 1
   1292     850     958 1
   1293     850    1173 1
   1294     851    1050 1
   1295     851    1267 1
   1296     852    1031 1
   1297     852    1312 1
   1298     854     862 1
   1299     855     883 1
   1300     856    1006 1
   1301     857    1040 1
   1302     857    1324 1
   1303     857    1354 1
   1304     857    1361 1
   1305     858     974 1
   1306     858     999 1
   1307     858    1068 1
   1308     858    1110 1
   1309     859    1106 1
   1310     859    1114 1
   1311     859    1323 1
   1312     860     867 1
   1313     860    1345 1
   1314     860    1349 1
   1315     861    1019 1
   1316     861    1252 1
   1317     861    2209 1
   1318     862     971 1
   1319     862    1259 1
   1320     863     877 1
   1321     863     945 1
   1322     863    1062 1
   1323     863    1331 1
   1324     864     878 1
   1325     864    1163 1
   1326     864    1179 1
   1327     864    1366 1
   1328     865    1079 1
   1329     865    1125 1
   1330     866    1098 1
   1331     866    1269 1
   1332     868    1169 1
   1333     868    1293 1
   1334     869    1166 1
   1335     870    1027 1
   1336     871    1099 1
   1337     871    2740 1
   1338     872    2452 1
   1339     873     932 1
   1340     873    1145 1
   1341     874     978 1
   1342     874    1171 1
   1343     875    1031 1
   1344     875    1263 1
   1345     876    1028 1
   1346     878    1218 1
   1347     879     881 1
   1348     879    2477 1
   1349     880    1073 1
   1350     880    1367 1
   1351     881    1176 1
   1352     881    1309 1
   1353     882    1036 1
   1354     882    1281 1
   1355     882    2494 1
   1356     882    2591 1
   1357     883     913 1
   1358     883    1047 1
   1359     883    1116 1
   1360     884     902 1
   1361     884    1271 1
   1362     885     891 1
   1363     885     902 1
   1364     885    1223 1
   1365     885    1234 1
   1366     886    1095 1
   1367     886    1159 1
   1368     886    2894 1
   1369     887     976 1
   1370     887    1064 1
   1371     887    1128 1
   1372     887    1237 1
   1373     888     970 1
   1374     889     957 1
   1375     889    1240 1
   1376     890    1077 1
   1377     890    1172 1
   1378     892    1102 1
   1379     892    1412 1
   1380     893    1102 1
   1381     894     931 1
   1382     895    1146 1
   1383     895    1169 1
   1384     896     929 1
   1385     896    1100 1
   1386     897    1263 1
   1387     898    1103 1
   1388     899    1368 1
   1389     900     979 1
   1390     900    1264 1
   1391     901    1051 1
   1392     901    1053 1
   1393     903     982 1
   1394     904    1145 1
   1395     905     915 1
   1396     905    1281 1
   1397     906     916 1
   1398     906    2530 1
   1399     907    1151 1
   1400     907    1229 1
   1401     907    1341 1
   1402     908    1093 1
   1403     908    1109 1
   1404     909     991 1
   1405     909    1066 1
   1406     909    1319 1
   1407     910     999 1
   1408     910    1090 1
   1409     910    1222 1
   1410     910    2201 1
   1411     911     924 1
   1412     911    1061 1
   1413     911    1350 1
   1414     911    2898 1
   1415     912     943 1
   1416     912     971 1
   1417     912    1224 1
   1418     914    1003 1
   1419     914    1102 1
   1420     916     953 1
   1421     917     956 1
   1422     918     953 1
   1423     918    1079 1
   1424     919    1218 1
   1425     919    1288 1
   1426     921    1076 1
   1427     921    2575 1
   1428     922    1238 1
   1429     923    1144 1
   1430     925    1100 1
   1431     926     978 1
   1432     927    1121 1
   1433     927    2281 1
   1434     928    1006 1
   1435     928    2380 1
   1436     929    1176 1
   1437     929    1273 1
   1438     929    1329 1
   1439     930     989 1
   1440     930    1065 1
   1441     930    1213 1
   1442     931    1138 1
   1443     931    1352 1
   1444     931    1369 1
   1445     932    1231 1
   1446     932    2376 1
   1447     933    1013 1
   1448     933    1070 1
   1449     933    1154 1
   1450     934    1210 1
   1451     934    2245 1
   1452     935    2184 1
   1453     935    2706 1
   1454     936    1013 1
   1455     936    1068 1
   1456     936    1155 1
   1457     936    1301 1
   1458     937    1025 1
   1459     937    1077 1
   1460     938    1242 1
   1461     938    1370 1
   1462     939    1080 1
   1463     939    1290 1
   1464     940     983 1
   1465     940    1336 1
   1466     941    1026 1
   1467     941    1172 1
   1468     942     979 1
   1469     944    1167 1
   1470     944    1268 1
   1471     945    1289 1
   1472     947    2214 1
   1473     948    2169 1
   1474     949    1055 1
   1475     949    1371 1
   1476     950    1078 1
   1477     951    1171 1
   1478     951    1196 1
   1479     952    1027 1
   1480     952    1170 1
   1481     953    1129 1
   1482     954     985 1
   1483     954    1186 1
   1484     954    1228 1
   1485     954    1235 1
   1486     955    1308 1
   1487     955    1327 1
   1488     956    1041 1
   1489     956    1137 1
   1490     956    2495 1
   1491     957    1104 1
   1492     957    1228 1
   1493     958    1254 1
   1494     958    1307 1
   1495     959    1072 1
   1496     959    1094 1
   1497     959    1133 1
   1498     960    1107 1
   1499     960    1272 1
   1500     961    1243 1
   1501     961    2868 1
   1502     962    1001 1
   1503     962    1195 1
   1504     963    1030 1
   1505     963    1171 1
   1506     964    1032 1
   1507     964    1291 1
   1508     965    1078 1
   1509     965    1168 1
   1510     966    1289 1
   1511     968    1103 1
   1512     968    1119 1
   1513     969    1056 1
   1514     969    1148 1
   1515     972    1001 1
   1516     973    1334 1
   1517     973    2477 1
   1518     974    1192 1
   1519     975    1122 1
   1520     976    1291 1
   1521     977    1057 1
   1522     977    1060 1
   1523     977    1177 1
   1524     977    1213 1
   1525     978    1014 1
   1526     978    1115 1
   1527     979    1154 1
   1528     979    1343 1
   1529     980     994 1
   1530     980     995 1
   1531     980    1156 1
   1532     980    1423 1
   1533     981    1016 1
   1534     981    1035 1
   1535     981    1250 1
   1536     981    1283 1
   1537     982    1117 1
   1538     983    1187 1
   1539     984    1177 1
   1540     984    1201 1
   1541     984    1283 1
   1542     984    1344 1
   1543     985    1146 1
   1544     986    1240 1
   1545     986    1241 1
   1546     987    1196 1
   1547     987    1339 1
   1548     988    1054 1
   1549     988    1193 1
   1550     989    1339 1
   1551     990    1194 1
   1552     991    1194 1
   1553     992    1054 1
   1554     992    1241 1
   1555     993    1004 1
   1556     995    1007 1
   1557     996    1054 1
   1558     998    1191 1
   1559    1000    1286 1
   1560    1000    1335 1
   1561    1002    1332 1
   1562    1002    1344 1
   1563    1003    1084 1
   1564    1003    1105 1
   1565    1003    1109 1
   1566    1004    1252 1
   1567    1004    2320 1
   1568    1005    1087 1
   1569    1005    1140 1
   1570    1006    1182 1
   1571    1007    1017 1
   1572    1007    1043 1
   1573    1007    1140 1
   1574    1008    1009 1
   1575    1008    1021 1
   1576    1008    1347 1
   1577    1009    1190 1
   1578    1010    2473 1
   1579    1011    1166 1
   1580    1012    1149 1
   1581    1014    1053 1
   1582    1015    1120 1
   1583    1015    1335 1
   1584    1017    1167 1
   1585    1018    1101 1
   1586    1018    1197 1
   1587    1020    1214 1
   1588    1022    1216 1
   1589    1023    1123 1
   1590    1023    1168 1
   1591    1025    1183 1
   1592    1025    1372 1
   1593    1025    2458 1
   1594    1026    1048 1
   1595    1026    1276 1
   1596    1027    1237 1
   1597    1028    1034 1
   1598    1028    1299 1
   1599    1028    2515 1
   1600    1029    1183 1
   1601    1029    1276 1
   1602    1029    2327 1
   1603    1029    2421 1
   1604    1030    1188 1
   1605    1030    1202 1
   1606    1031    1250 1
   1607    1031    1348 1
   1608    1032    1137 1
   1609    1032    1275 1
   1610    1032    2271 1
   1611    1033    1312 1
   1612    1034    1334 1
   1613    1035    1196 1
   1614    1037    1311 1
   1615    1037    1433 1
   1616    1038    1244 1
   1617    1038    1262 1
   1618    1039    1143 1
   1619    1039    1244 1
   1620    1040    1244 1
   1621    1041    1049 1
   1622    1042    1373 1
   1623    1044    1147 1
   1624    1044    1315 1
   1625    1045    1312 1
   1626    1046    1334 1
   1627    1046    2330 1
   1628    1047    2404 1
   1629    1048    1221 1
   1630    1049    1065 1
   1631    1049    1085 1
   1632    1049    1141 1
   1633    1050    1113 1
   1634    1050    1270 1
   1635    1050    1320 1
   1636    1051    1087 1
   1637    1051    1178 1
   1638    1051    1253 1
   1639    1052    1130 1
   1640    1052    1282 1
   1641    1052    1321 1
   1642    1053    1152 1
   1643    1054    1321 1
   1644    1055    1161 1
   1645    1055    1297 1
   1646    1055    2609 1
   1647    1056    1108 1
   1648    1056    1134 1
   1649    1058    1335 1
   1650    1058    1338 1
   1651    1059    1242 1
   1652    1060    1241 1
   1653    1063    1241 1
   1654    1064    1240 1
   1655    1066    1219 1
   1656    1067    2476 1
   1657    1070    1425 1
   1658    1071    1101 1
   1659    1071    1311 1
   1660    1072    1315 1
   1661    1073    1175 1
   1662    1073    1251 1
   1663    1073    1351 1
   1664    1074    1127 1
   1665    1074    1208 1
   1666    1075    1165 1
   1667    1075    1225 1
   1668    1075    1411 1
   1669    1076    1082 1
   1670    1077    1374 1
   1671    1077    1375 1
   1672    1078    1279 1
   1673    1079    1199 1
   1674    1080    1356 1
   1675    1080    2801 1
   1676    1080    2924 1
   1677    1081    2236 1
   1678    1082    2354 1
   1679    1083    1143 1
   1680    1083    1440 1
   1681    1086    1168 1
   1682    1086    2568 1
   1683    1088    1120 1
   1684    1088    1193 1
   1685    1089    1123 1
   1686    1091    1337 1
   1687    1092    1216 1
   1688    1093    2870 1
   1689    1095    1096 1
   1690    1096    1142 1
   1691    1096    1274 1
   1692    1096    1282 1
   1693    1097    1179 1
   1694    1097    1346 1
   1695    1098    1199 1
   1696    1099    1204 1
   1697    1100    1306 1
   1698    1100    1376 1
   1699    1101    1325 1
   1700    1101    1377 1
   1701    1102    1212 1
   1702    1103    1257 1
   1703    1103    2228 1
   1704    1105    1425 1
   1705    1106    1412 1
   1706    1107    1168 1
   1707    1108    1120 1
   1708    1111    1378 1
   1709    1114    1266 1
   1710    1117    1126 1
   1711    1118    1412 1
   1712    1119    2534 1
   1713    1119    2558 1
   1714    1121    1232 1
   1715    1121    1355 1
   1716    1122    1139 1
   1717    1122    1152 1
   1718    1122    1349 1
   1719    1123    1233 1
   1720    1123    1356 1
   1721    1124    1187 1
   1722    1124    1188 1
   1723    1124    1305 1
   1724    1125    1135 1
   1725    1126    1274 1
   1726    1126    1299 1
   1727    1126    2369 1
   1728    1129    1333 1
   1729    1130    1333 1
   1730    1131    1144 1
   1731    1131    1245 1
   1732    1132    1144 1
   1733    1134    1333 1
   1734    1135    2891 1
   1735    1136    1195 1
   1736    1142    2330 1
   1737    1143    1175 1
   1738    1143    1249 1
   1739    1145    1203 1
   1740    1146    1158 1
   1741    1146    1236 1
   1742    1147    1211 1
   1743    1147    1305 1
   1744    1147    1345 1
   1745    1148    1280 1
   1746    1148    2902 1
   1747    1149    1155 1
   1748    1149    1247 1
   1749    1149    1298 1
   1750    1150    1214 1
   1751    1150    1269 1
   1752    1153    1194 1
   1753    1153    2903 1
   1754    1156    1220 1
   1755    1157    1170 1
   1756    1157    1192 1
   1757    1158    1173 1
   1758    1160    1220 1
   1759    1160    2503 1
   1760    1162    1262 1
   1761    1162    1292 1
   1762    1163    1317 1
   1763    1164    1197 1
   1764    1166    1205 1
   1765    1166    1430 1
   1766    1167    1323 1
   1767    1169    1254 1
   1768    1169    1318 1
   1769    1171    1229 1
   1770    1173    1233 1
   1771    1173    1294 1
   1772    1181    1338 1
   1773    1182    1406 1
   1774    1184    1263 1
   1775    1185    1379 1
   1776    1189    1313 1
   1777    1189    1314 1
   1778    1190    1226 1
   1779    1190    1302 1
   1780    1191    1285 1
   1781    1191    1380 1
   1782    1192    1208 1
   1783    1192    1298 1
   1784    1193    1201 1
   1785    1193    1209 1
   1786    1194    1258 1
   1787    1195    1353 1
   1788    1196    1303 1
   1789    1197    1328 1
   1790    1198    1333 1
   1791    1200    1267 1
   1792    1200    1292 1
   1793    1202    1313 1
   1794    1205    1424 1
   1795    1206    1293 1
   1796    1206    1313 1
   1797    1210    1220 1
   1798    1214    2897 1
   1799    1215    1227 1
   1800    1215    1261 1
   1801    1216    1256 1
   1802    1217    1248 1
   1803    1217    1255 1
   1804    1217    1271 1
   1805    1218    1381 1
   1806    1218    1382 1
   1807    1219    1304 1
   1808    1220    1383 1
   1809    1221    1353 1
   1810    1223    1384 1
   1811    1224    1385 1
   1812    1225    1238 1
   1813    1226    1289 1
   1814    1227    1264 1
   1815    1230    1264 1
   1816    1230    1266 1
   1817    1232    1289 1
   1818    1234    1317 1
   1819    1235    1238 1
   1820    1238    1255 1
   1821    1239    1260 1
   1822    1239    1386 1
   1823    1239    1387 1
   1824    1240    1275 1
   1825    1242    1249 1
   1826    1243    1297 1
   1827    1243    1351 1
   1828    1243    1388 1
   1829    1245    1320 1
   1830    1245    1330 1
   1831    1251    1264 1
   1832    1253    2287 1
   1833    1257    2383 1
   1834    1259    1286 1
   1835    1260    1316 1
   1836    1261    1268 1
   1837    1262    1332 1
   1838    1265    1322 1
   1839    1265    1389 1
   1840    1265    1390 1
   1841    1266    1285 1
   1842    1266    1300 1
   1843    1267    1347 1
   1844    1268    1278 1
   1845    1269    1280 1
   1846    1269    1354 1
   1847    1270    1312 1
   1848    1272    1340 1
   1849    1273    1288 1
   1850    1277    1313 1
   1851    1279    1340 1
   1852    1284    1429 1
   1853    1286    2900 1
   1854    1287    1295 1
   1855    1287    1324 1
   1856    1287    1331 1
   1857    1288    1306 1
   1858    1290    1296 1
   1859    1291    2220 1
   1860    1291    2319 1
   1861    1292    1295 1
   1862    1292    1302 1
   1863    1293    1342 1
   1864    1294    1310 1
   1865    1296    1391 1
   1866    1300    1316 1
   1867    1307    1336 1
   1868    1308    1336 1
   1869    1310    1327 1
   1870    1310    1390 1
   1871    1310    1434 1
   1872    1314    1318 1
   1873    1316    1392 1
   1874    1317    1319 1
   1875    1329    1393 1
   1876    1330    1335 1
   1877    1339    1343 1
   1878    1350    2903 1
   1879    1352    2528 1
   1880    1357    1394 1
   1881    1359    1416 1
   1882    1359    1417 1
   1883    1359    1418 1
   1884    1360    1406 1
   1885    1361    1406 1
   1886    1362    1395 1
   1887    1364    1438 1
   1888    1365    1409 1
   1889    1366    1396 1
   1890    1369    1437 1
   1891    1372    1397 1
   1892    1374    1398 1
   1893    1376    1399 1
   1894    1377    1400 1
   1895    1380    1401 1
   1896    1381    1409 1
   1897    1382    1402 1
   1898    1383    1436 1
   1899    1386    1403 1
   1900    1388    1404 1
   1901    1389    1441 1
   1902    1392    1405 1
   1903    1406    1407 1
   1904    1407    1408 1
   1905    1409    1410 1
   1906    1409    1411 1
   1907    1410    1442 1
   1908    1412    1413 1
   1909    1413    1443 1
   1910    1414    1415 1
   1911    1416    1419 1
   1912    1417    1424 1
   1913    1418    1422 1
   1914    1419    1421 1
   1915    1419    2245 1
   1916    1419    2866 1
   1917    1420    1425 1
   1918    1420    2928 1
   1919    1421    1422 1
   1920    1422    1423 1
   1921    1422    2409 1
   1922    1424    1428 1
   1923    1424    2541 1
   1924    1425    1426 1
   1925    1426    1427 1
   1926    1428    1439 1
   1927    1430    1431 1
   1928    1434    1435 1
   1929    1444    1892 1
   1930    1444    1921 1
   1931    1444    2208 1
   1932    1444    2705 1
   1933    1445    1506 1
   1934    1445    1741 1
   1935    1445    1833 1
   1936    1445    1996 1
   1937    1446    1949 1
   1938    1446    2072 1
   1939    1446    2074 1
   1940    1447    1551 1
   1941    1447    1569 1
   1942    1447    1711 1
   1943    1447    1736 1
   1944    1448    1662 1
   1945    1448    1685 1
   1946    1448    1930 1
   1947    1448    1965 1
   1948    1449    1463 1
   1949    1449    1590 1
   1950    1449    1896 1
   1951    1449    1898 1
   1952    1450    1474 1
   1953    1450    1592 1
   1954    1450    1716 1
   1955    1450    2002 1
   1956    1451    1866 1
   1957    1451    2004 1
   1958    1452    1467 1
   1959    1452    1469 1
   1960    1453    1538 1
   1961    1453    1607 1
   1962    1454    1747 1
   1963    1454    1888 1
   1964    1455    1793 1
   1965    1455    1862 1
   1966    1456    1724 1
   1967    1456    2356 1
   1968    1457    1653 1
   1969    1457    1791 1
   1970    1458    1466 1
   1971    1458    2011 1
   1972    1459    1584 1
   1973    1459    1793 1
   1974    1460    1626 1
   1975    1460    1939 1
   1976    1461    1983 1
   1977    1461    2029 1
   1978    1462    1908 1
   1979    1462    2033 1
   1980    1464    1655 1
   1981    1464    2354 1
   1982    1465    1493 1
   1983    1465    2051 1
   1984    1466    1593 1
   1985    1466    1774 1
   1986    1466    2021 1
   1987    1467    1693 1
   1988    1467    1929 1
   1989    1467    1995 1
   1990    1468    1759 1
   1991    1468    1882 1
   1992    1468    2043 1
   1993    1468    2090 1
   1994    1469    1690 1
   1995    1469    1715 1
   1996    1469    1902 1
   1997    1470    1481 1
   1998    1470    1667 1
   1999    1470    1898 1
   2000    1470    2909 1
   2001    1471    1688 1
   2002    1471    1829 1
   2003    1471    1856 1
   2004    1471    2043 1
   2005    1472    1482 1
   2006    1472    1504 1
   2007    1472    1845 1
   2008    1472    1846 1
   2009    1473    1483 1
   2010    1473    1485 1
   2011    1473    2045 1
   2012    1473    2059 1
   2013    1474    1934 1
   2014    1475    1611 1
   2015    1475    1837 1
   2016    1476    1533 1
   2017    1476    2055 1
   2018    1477    1654 1
   2019    1477    1723 1
   2020    1478    1539 1
   2021    1478    1719 1
   2022    1479    1654 1
   2023    1479    2149 1
   2024    1480    2075 1
   2025    1481    1723 1
   2026    1482    1678 1
   2027    1483    1607 1
   2028    1484    1701 1
   2029    1484    2032 1
   2030    1485    1539 1
   2031    1486    2029 1
   2032    1486    2053 1
   2033    1487    1843 1
   2034    1488    1552 1
   2035    1488    1565 1
   2036    1488    1576 1
   2037    1488    1784 1
   2038    1489    1728 1
   2039    1489    1806 1
   2040    1489    1821 1
   2041    1489    1903 1
   2042    1490    1577 1
   2043    1490    1779 1
   2044    1490    1808 1
   2045    1490    1892 1
   2046    1491    1532 1
   2047    1491    1565 1
   2048    1491    1830 1
   2049    1491    1831 1
   2050    1492    1786 1
   2051    1492    1859 1
   2052    1492    1925 1
   2053    1493    1543 1
   2054    1493    1642 1
   2055    1493    2027 1
   2056    1494    1737 1
   2057    1494    2076 1
   2058    1494    2132 1
   2059    1494    2532 1
   2060    1495    1685 1
   2061    1495    1739 1
   2062    1495    1869 1
   2063    1495    2916 1
   2064    1496    1516 1
   2065    1496    1815 1
   2066    1497    1539 1
   2067    1497    1890 1
   2068    1498    1611 1
   2069    1499    1700 1
   2070    1499    1796 1
   2071    1500    1611 1
   2072    1500    1719 1
   2073    1501    1561 1
   2074    1501    1937 1
   2075    1502    2006 1
   2076    1502    2403 1
   2077    1503    1513 1
   2078    1503    2739 1
   2079    1504    1562 1
   2080    1505    1963 1
   2081    1505    2054 1
   2082    1506    1515 1
   2083    1507    1816 1
   2084    1508    1720 1
   2085    1508    1838 1
   2086    1509    1888 1
   2087    1509    2057 1
   2088    1510    1582 1
   2089    1510    1628 1
   2090    1511    1600 1
   2091    1511    1625 1
   2092    1511    1663 1
   2093    1511    2078 1
   2094    1512    1578 1
   2095    1512    1712 1
   2096    1512    1738 1
   2097    1512    1741 1
   2098    1513    1645 1
   2099    1513    1877 1
   2100    1514    1526 1
   2101    1514    1542 1
   2102    1514    1760 1
   2103    1514    1964 1
   2104    1515    1809 1
   2105    1515    1857 1
   2106    1515    2058 1
   2107    1516    1531 1
   2108    1516    1624 1
   2109    1516    1786 1
   2110    1517    1616 1
   2111    1517    1851 1
   2112    1517    2079 1
   2113    1517    2908 1
   2114    1518    1519 1
   2115    1518    1571 1
   2116    1518    1620 1
   2117    1518    2022 1
   2118    1519    1890 1
   2119    1520    1933 1
   2120    1520    2056 1
   2121    1521    1915 1
   2122    1521    2156 1
   2123    1523    1885 1
   2124    1523    1909 1
   2125    1524    1558 1
   2126    1525    1540 1
   2127    1525    1769 1
   2128    1526    1839 1
   2129    1527    1720 1
   2130    1527    1815 1
   2131    1528    1773 1
   2132    1528    2055 1
   2133    1529    1957 1
   2134    1529    1962 1
   2135    1530    1585 1
   2136    1530    2005 1
   2137    1531    1843 1
   2138    1532    1981 1
   2139    1533    1640 1
   2140    1533    1750 1
   2141    1533    1976 1
   2142    1534    1684 1
   2143    1534    1964 1
   2144    1534    2080 1
   2145    1534    2103 1
   2146    1535    1633 1
   2147    1535    1715 1
   2148    1535    1854 1
   2149    1535    1922 1
   2150    1536    1780 1
   2151    1536    1904 1
   2152    1536    1966 1
   2153    1536    2065 1
   2154    1537    1614 1
   2155    1537    1883 1
   2156    1537    1954 1
   2157    1537    2081 1
   2158    1538    1550 1
   2159    1538    1554 1
   2160    1538    1762 1
   2161    1539    1619 1
   2162    1540    1544 1
   2163    1540    1640 1
   2164    1540    1927 1
   2165    1541    1677 1
   2166    1541    2032 1
   2167    1542    1986 1
   2168    1543    1675 1
   2169    1544    1935 1
   2170    1545    1557 1
   2171    1545    1700 1
   2172    1546    1913 1
   2173    1547    1558 1
   2174    1547    1960 1
   2175    1548    1652 1
   2176    1548    1722 1
   2177    1549    1770 1
   2178    1549    1816 1
   2179    1550    1939 1
   2180    1551    1563 1
   2181    1552    1626 1
   2182    1553    1743 1
   2183    1553    1937 1
   2184    1554    1629 1
   2185    1555    1560 1
   2186    1555    1726 1
   2187    1556    1776 1
   2188    1556    1879 1
   2189    1556    1925 1
   2190    1557    1599 1
   2191    1557    1714 1
   2192    1557    1802 1
   2193    1558    1579 1
   2194    1558    1595 1
   2195    1559    1635 1
   2196    1559    1644 1
   2197    1559    1708 1
   2198    1559    1850 1
   2199    1560    1646 1
   2200    1560    1733 1
   2201    1560    1830 1
   2202    1561    1753 1
   2203    1561    1778 1
   2204    1561    1798 1
   2205    1562    1637 1
   2206    1563    1576 1
   2207    1563    1666 1
   2208    1563    1834 1
   2209    1564    1933 1
   2210    1564    1980 1
   2211    1566    1676 1
   2212    1566    1744 1
   2213    1567    1985 1
   2214    1567    2054 1
   2215    1568    1655 1
   2216    1568    1678 1
   2217    1569    2054 1
   2218    1570    1604 1
   2219    1570    1792 1
   2220    1571    2034 1
   2221    1572    1650 1
   2222    1572    1791 1
   2223    1573    1676 1
   2224    1573    1891 1
   2225    1574    1767 1
   2226    1574    1985 1
   2227    1575    1748 1
   2228    1575    2030 1
   2229    1577    1585 1
   2230    1578    1606 1
   2231    1579    1724 1
   2232    1580    1757 1
   2233    1580    2041 1
   2234    1580    2071 1
   2235    1580    2077 1
   2236    1581    1692 1
   2237    1581    1717 1
   2238    1581    1785 1
   2239    1581    1828 1
   2240    1582    1823 1
   2241    1582    1832 1
   2242    1582    2040 1
   2243    1583    1590 1
   2244    1583    2062 1
   2245    1583    2066 1
   2246    1583    2371 1
   2247    1584    1736 1
   2248    1584    1970 1
   2249    1585    1689 1
   2250    1585    1977 1
   2251    1586    1600 1
   2252    1586    1665 1
   2253    1586    1779 1
   2254    1586    2048 1
   2255    1587    1601 1
   2256    1587    1881 1
   2257    1587    1897 1
   2258    1587    2082 1
   2259    1588    1796 1
   2260    1588    1843 1
   2261    1589    1815 1
   2262    1589    1987 1
   2263    1591    1887 1
   2264    1591    2011 1
   2265    1592    1884 1
   2266    1593    1744 1
   2267    1594    1816 1
   2268    1596    1652 1
   2269    1596    1863 1
   2270    1597    1696 1
   2271    1597    1889 1
   2272    1598    1748 1
   2273    1598    1981 1
   2274    1599    1745 1
   2275    1601    1936 1
   2276    1602    1604 1
   2277    1603    1790 1
   2278    1603    2083 1
   2279    1604    1894 1
   2280    1604    2027 1
   2281    1605    1753 1
   2282    1605    1999 1
   2283    1606    1633 1
   2284    1606    1764 1
   2285    1606    1834 1
   2286    1607    1623 1
   2287    1607    1989 1
   2288    1608    1614 1
   2289    1608    1623 1
   2290    1608    1941 1
   2291    1608    1952 1
   2292    1609    1812 1
   2293    1609    1877 1
   2294    1609    2228 1
   2295    1609    2398 1
   2296    1610    1694 1
   2297    1610    1781 1
   2298    1610    1846 1
   2299    1610    1955 1
   2300    1611    1688 1
   2301    1612    1675 1
   2302    1612    1958 1
   2303    1613    1794 1
   2304    1613    1890 1
   2305    1615    1819 1
   2306    1615    2129 1
   2307    1616    1651 1
   2308    1617    1864 1
   2309    1617    1887 1
   2310    1618    1649 1
   2311    1618    1817 1
   2312    1619    1981 1
   2313    1620    2084 1
   2314    1621    1697 1
   2315    1621    1982 1
   2316    1622    1768 1
   2317    1622    1770 1
   2318    1624    1700 1
   2319    1625    1863 1
   2320    1626    1635 1
   2321    1626    1999 1
   2322    1627    1636 1
   2323    1627    2185 1
   2324    1627    2538 1
   2325    1628    1869 1
   2326    1628    1947 1
   2327    1628    2058 1
   2328    1629    1709 1
   2329    1629    1783 1
   2330    1629    2036 1
   2331    1630    1717 1
   2332    1630    1807 1
   2333    1630    1940 1
   2334    1631    1644 1
   2335    1631    1778 1
   2336    1631    2067 1
   2337    1631    2346 1
   2338    1632    1663 1
   2339    1632    1689 1
   2340    1632    1942 1
   2341    1632    2567 1
   2342    1634    1721 1
   2343    1634    1819 1
   2344    1636    1672 1
   2345    1637    1674 1
   2346    1638    1672 1
   2347    1638    1796 1
   2348    1639    1936 1
   2349    1639    2006 1
   2350    1641    1793 1
   2351    1642    1956 1
   2352    1643    1862 1
   2353    1643    2308 1
   2354    1645    1817 1
   2355    1646    1696 1
   2356    1647    1839 1
   2357    1648    1724 1
   2358    1649    1894 1
   2359    1649    1991 1
   2360    1649    2046 1
   2361    1650    1707 1
   2362    1650    1782 1
   2363    1650    1931 1
   2364    1651    1856 1
   2365    1651    2069 1
   2366    1651    2085 1
   2367    1652    1949 1
   2368    1653    1730 1
   2369    1653    1787 1
   2370    1653    1872 1
   2371    1654    1928 1
   2372    1656    1730 1
   2373    1656    1785 1
   2374    1656    1873 1
   2375    1656    2019 1
   2376    1657    1742 1
   2377    1657    1794 1
   2378    1658    1960 1
   2379    1658    2086 1
   2380    1659    1797 1
   2381    1659    2008 1
   2382    1660    1701 1
   2383    1660    2053 1
   2384    1661    1743 1
   2385    1661    1890 1
   2386    1662    1697 1
   2387    1664    1885 1
   2388    1664    1986 1
   2389    1665    2007 1
   2390    1667    2891 1
   2391    1668    1772 1
   2392    1668    2159 1
   2393    1669    1795 1
   2394    1669    2334 1
   2395    1670    1889 1
   2396    1670    1914 1
   2397    1671    1744 1
   2398    1671    1888 1
   2399    1672    1847 1
   2400    1672    2559 1
   2401    1673    1703 1
   2402    1673    1904 1
   2403    1673    1946 1
   2404    1673    1953 1
   2405    1674    1758 1
   2406    1674    1855 1
   2407    1675    1821 1
   2408    1675    1946 1
   2409    1676    1972 1
   2410    1676    2025 1
   2411    1677    1789 1
   2412    1677    1811 1
   2413    1677    1851 1
   2414    1678    1824 1
   2415    1678    1990 1
   2416    1679    1961 1
   2417    1680    1719 1
   2418    1680    1913 1
   2419    1681    1747 1
   2420    1681    1889 1
   2421    1682    1749 1
   2422    1682    2009 1
   2423    1683    1795 1
   2424    1683    1886 1
   2425    1684    2007 1
   2426    1686    1820 1
   2427    1686    1837 1
   2428    1687    1773 1
   2429    1687    1866 1
   2430    1690    1719 1
   2431    1691    2051 1
   2432    1692    1910 1
   2433    1693    1840 1
   2434    1694    2009 1
   2435    1695    1774 1
   2436    1695    1777 1
   2437    1695    1895 1
   2438    1695    1931 1
   2439    1696    1731 1
   2440    1696    1833 1
   2441    1697    1872 1
   2442    1697    2060 1
   2443    1698    1712 1
   2444    1698    1713 1
   2445    1698    1874 1
   2446    1698    2139 1
   2447    1699    1733 1
   2448    1699    1752 1
   2449    1699    1968 1
   2450    1699    2001 1
   2451    1700    1835 1
   2452    1701    1905 1
   2453    1701    2795 1
   2454    1702    1895 1
   2455    1702    1919 1
   2456    1702    2001 1
   2457    1702    2061 1
   2458    1703    1864 1
   2459    1704    1958 1
   2460    1704    1959 1
   2461    1705    1914 1
   2462    1705    2056 1
   2463    1706    1771 1
   2464    1706    1911 1
   2465    1707    2056 1
   2466    1708    1912 1
   2467    1709    1912 1
   2468    1710    1771 1
   2469    1710    1959 1
   2470    1711    1722 1
   2471    1713    1725 1
   2472    1714    1771 1
   2473    1716    1909 1
   2474    1718    2004 1
   2475    1718    2052 1
   2476    1720    2049 1
   2477    1720    2061 1
   2478    1721    1801 1
   2479    1721    1822 1
   2480    1721    1826 1
   2481    1722    1970 1
   2482    1723    1804 1
   2483    1723    1858 1
   2484    1724    1900 1
   2485    1725    1734 1
   2486    1725    1760 1
   2487    1725    1858 1
   2488    1726    1727 1
   2489    1726    1738 1
   2490    1726    2064 1
   2491    1727    1908 1
   2492    1729    1884 1
   2493    1729    2594 1
   2494    1731    1770 1
   2495    1732    1838 1
   2496    1732    2052 1
   2497    1734    1885 1
   2498    1735    1818 1
   2499    1735    1915 1
   2500    1737    1932 1
   2501    1739    1934 1
   2502    1740    1841 1
   2503    1740    1886 1
   2504    1742    1901 1
   2505    1742    2087 1
   2506    1743    1765 1
   2507    1743    1994 1
   2508    1744    1955 1
   2509    1745    1751 1
   2510    1745    2017 1
   2511    1746    1901 1
   2512    1746    1994 1
   2513    1747    1906 1
   2514    1747    1920 1
   2515    1748    1968 1
   2516    1748    2065 1
   2517    1749    1855 1
   2518    1749    1993 1
   2519    1750    2030 1
   2520    1751    2051 1
   2521    1752    1914 1
   2522    1754    2028 1
   2523    1754    2029 1
   2524    1755    1962 1
   2525    1755    1980 1
   2526    1756    1861 1
   2527    1756    1962 1
   2528    1757    1962 1
   2529    1758    1766 1
   2530    1759    2088 1
   2531    1761    1865 1
   2532    1761    2919 1
   2533    1762    2030 1
   2534    1763    2051 1
   2535    1765    1939 1
   2536    1766    1782 1
   2537    1766    1802 1
   2538    1766    1859 1
   2539    1767    1831 1
   2540    1767    1988 1
   2541    1767    2037 1
   2542    1768    1804 1
   2543    1768    1896 1
   2544    1768    1971 1
   2545    1769    1848 1
   2546    1769    2000 1
   2547    1769    2038 1
   2548    1770    1870 1
   2549    1771    2038 1
   2550    1772    1879 1
   2551    1772    2015 1
   2552    1773    1825 1
   2553    1773    1852 1
   2554    1775    2052 1
   2555    1775    2055 1
   2556    1776    1960 1
   2557    1777    1959 1
   2558    1780    1959 1
   2559    1781    1958 1
   2560    1783    1937 1
   2561    1787    2141 1
   2562    1788    1818 1
   2563    1788    2029 1
   2564    1789    2919 1
   2565    1790    1893 1
   2566    1790    1969 1
   2567    1790    2068 1
   2568    1791    1845 1
   2569    1791    1926 1
   2570    1792    1943 1
   2571    1792    2128 1
   2572    1792    2154 1
   2573    1793    1799 1
   2574    1794    2089 1
   2575    1794    2090 1
   2576    1795    1997 1
   2577    1795    2911 1
   2578    1796    1917 1
   2579    1797    1827 1
   2580    1797    2073 1
   2581    1800    1861 1
   2582    1800    2091 1
   2583    1801    2216 1
   2584    1803    1886 1
   2585    1805    1838 1
   2586    1805    1911 1
   2587    1806    1841 1
   2588    1807    2354 1
   2589    1808    2054 1
   2590    1809    1934 1
   2591    1810    2915 1
   2592    1811    2545 1
   2593    1812    1813 1
   2594    1813    1860 1
   2595    1813    1992 1
   2596    1813    2000 1
   2597    1814    1897 1
   2598    1814    2063 1
   2599    1814    2542 1
   2600    1814    2771 1
   2601    1815    1917 1
   2602    1816    1922 1
   2603    1817    2024 1
   2604    1817    2092 1
   2605    1818    2042 1
   2606    1818    2093 1
   2607    1819    1930 1
   2608    1819    2913 1
   2609    1820    1975 1
   2610    1820    2894 1
   2611    1820    2914 1
   2612    1822    2141 1
   2613    1823    2129 1
   2614    1824    1886 1
   2615    1825    1838 1
   2616    1826    2915 1
   2617    1828    2401 1
   2618    1829    2094 1
   2619    1832    1984 1
   2620    1835    1844 1
   2621    1836    2129 1
   2622    1836    2360 1
   2623    1837    2923 1
   2624    1839    1950 1
   2625    1839    2072 1
   2626    1840    1857 1
   2627    1840    1870 1
   2628    1840    2066 1
   2629    1841    1951 1
   2630    1841    2073 1
   2631    1842    1905 1
   2632    1842    1906 1
   2633    1842    2023 1
   2634    1842    2630 1
   2635    1843    1853 1
   2636    1844    1992 1
   2637    1844    2017 1
   2638    1847    2050 1
   2639    1848    2050 1
   2640    1849    1862 1
   2641    1849    1963 1
   2642    1850    1862 1
   2643    1852    2050 1
   2644    1853    2169 1
   2645    1854    1913 1
   2646    1861    1893 1
   2647    1861    1967 1
   2648    1863    1921 1
   2649    1863    2459 1
   2650    1864    1876 1
   2651    1864    1954 1
   2652    1865    1929 1
   2653    1865    2023 1
   2654    1865    2062 1
   2655    1866    1998 1
   2656    1866    2460 1
   2657    1867    1873 1
   2658    1867    1965 1
   2659    1867    2016 1
   2660    1867    2918 1
   2661    1868    1932 1
   2662    1868    1987 1
   2663    1871    1912 1
   2664    1871    2764 1
   2665    1874    1938 1
   2666    1875    1888 1
   2667    1875    1910 1
   2668    1876    1891 1
   2669    1878    1938 1
   2670    1880    1980 1
   2671    1880    2010 1
   2672    1881    2034 1
   2673    1882    1915 1
   2674    1883    2153 1
   2675    1884    1923 1
   2676    1884    2147 1
   2677    1885    2040 1
   2678    1887    1972 1
   2679    1887    2035 1
   2680    1889    1947 1
   2681    1891    1951 1
   2682    1891    2012 1
   2683    1899    2055 1
   2684    1899    2573 1
   2685    1900    2122 1
   2686    1902    1981 1
   2687    1903    2095 1
   2688    1907    2031 1
   2689    1907    2032 1
   2690    1908    1944 1
   2691    1908    2020 1
   2692    1909    2003 1
   2693    1909    2096 1
   2694    1910    1926 1
   2695    1910    2016 1
   2696    1911    1919 1
   2697    1911    1927 1
   2698    1912    1976 1
   2699    1913    2070 1
   2700    1914    2021 1
   2701    1915    2045 1
   2702    1916    2050 1
   2703    1916    2789 1
   2704    1918    1985 1
   2705    1918    2010 1
   2706    1920    2031 1
   2707    1923    2140 1
   2708    1924    2011 1
   2709    1924    2031 1
   2710    1928    1938 1
   2711    1932    2341 1
   2712    1932    2750 1
   2713    1933    1945 1
   2714    1933    1979 1
   2715    1934    1974 1
   2716    1935    1966 1
   2717    1935    1973 1
   2718    1935    1989 1
   2719    1936    2097 1
   2720    1936    2098 1
   2721    1937    2022 1
   2722    1938    2099 1
   2723    1939    2070 1
   2724    1940    2907 1
   2725    1941    2100 1
   2726    1942    2101 1
   2727    1943    1956 1
   2728    1944    2007 1
   2729    1945    1982 1
   2730    1948    1982 1
   2731    1948    1984 1
   2732    1950    2007 1
   2733    1952    2034 1
   2734    1953    1956 1
   2735    1956    1973 1
   2736    1957    1978 1
   2737    1957    2102 1
   2738    1957    2103 1
   2739    1958    1993 1
   2740    1960    1967 1
   2741    1961    2015 1
   2742    1961    2068 1
   2743    1961    2104 1
   2744    1963    2037 1
   2745    1963    2047 1
   2746    1969    1982 1
   2747    1974    2163 1
   2748    1977    2004 1
   2749    1978    2033 1
   2750    1979    1986 1
   2751    1980    2049 1
   2752    1983    2039 1
   2753    1983    2105 1
   2754    1983    2106 1
   2755    1984    2003 1
   2756    1984    2018 1
   2757    1985    2064 1
   2758    1986    1996 1
   2759    1987    1998 1
   2760    1987    2071 1
   2761    1988    2030 1
   2762    1990    2057 1
   2763    1991    2006 1
   2764    1995    2031 1
   2765    1997    2057 1
   2766    2002    2146 1
   2767    2004    2394 1
   2768    2005    2013 1
   2769    2005    2041 1
   2770    2005    2048 1
   2771    2006    2024 1
   2772    2008    2014 1
   2773    2008    2107 1
   2774    2008    2225 1
   2775    2010    2013 1
   2776    2010    2020 1
   2777    2011    2059 1
   2778    2012    2028 1
   2779    2014    2108 1
   2780    2018    2033 1
   2781    2019    2663 1
   2782    2025    2053 1
   2783    2026    2053 1
   2784    2026    2917 1
   2785    2028    2044 1
   2786    2028    2151 1
   2787    2032    2035 1
   2788    2033    2109 1
   2789    2034    2036 1
   2790    2039    2545 1
   2791    2042    2110 1
   2792    2044    2917 1
   2793    2046    2157 1
   2794    2047    2052 1
   2795    2056    2060 1
   2796    2057    2647 1
   2797    2063    2431 1
   2798    2067    2764 1
   2799    2074    2111 1
   2800    2075    2134 1
   2801    2075    2135 1
   2802    2075    2925 1
   2803    2076    2122 1
   2804    2077    2122 1
   2805    2078    2112 1
   2806    2079    2161 1
   2807    2080    2113 1
   2808    2081    2125 1
   2809    2082    2114 1
   2810    2085    2115 1
   2811    2087    2158 1
   2812    2089    2116 1
   2813    2092    2739 1
   2814    2093    2117 1
   2815    2096    2118 1
   2816    2097    2125 1
   2817    2098    2119 1
   2818    2099    2160 1
   2819    2102    2162 1
   2820    2104    2120 1
   2821    2105    2921 1
   2822    2106    2150 1
   2823    2107    2922 1
   2824    2109    2121 1
   2825    2122    2123 1
   2826    2123    2124 1
   2827    2125    2126 1
   2828    2125    2128 1
   2829    2126    2127 1
   2830    2129    2130 1
   2831    2130    2131 1
   2832    2132    2133 1
   2833    2134    2140 1
   2834    2135    2138 1
   2835    2136    2141 1
   2836    2137    2138 1
   2837    2137    2926 1
   2838    2138    2139 1
   2839    2140    2144 1
   2840    2141    2142 1
   2841    2142    2143 1
   2842    2144    2145 1
   2843    2147    2148 1
   2844    2151    2152 1
   2845    2154    2155 1
   2846    2163    2623 1
   2847    2163    2652 1
   2848    2163    2909 1
   2849    2164    2229 1
   2850    2164    2472 1
   2851    2164    2564 1
   2852    2164    2727 1
   2853    2165    2680 1
   2854    2165    2804 1
   2855    2165    2806 1
   2856    2166    2276 1
   2857    2166    2294 1
   2858    2166    2441 1
   2859    2166    2467 1
   2860    2167    2390 1
   2861    2167    2415 1
   2862    2167    2661 1
   2863    2167    2696 1
   2864    2168    2184 1
   2865    2168    2315 1
   2866    2168    2627 1
   2867    2168    2629 1
   2868    2169    2253 1
   2869    2169    2671 1
   2870    2170    2195 1
   2871    2170    2317 1
   2872    2170    2446 1
   2873    2170    2733 1
   2874    2171    2597 1
   2875    2171    2735 1
   2876    2172    2188 1
   2877    2172    2190 1
   2878    2173    2263 1
   2879    2173    2332 1
   2880    2174    2478 1
   2881    2174    2619 1
   2882    2175    2524 1
   2883    2175    2593 1
   2884    2176    2454 1
   2885    2176    2915 1
   2886    2177    2381 1
   2887    2177    2522 1
   2888    2178    2187 1
   2889    2178    2742 1
   2890    2179    2309 1
   2891    2179    2524 1
   2892    2180    2353 1
   2893    2180    2670 1
   2894    2181    2714 1
   2895    2181    2760 1
   2896    2182    2639 1
   2897    2182    2765 1
   2898    2183    2240 1
   2899    2183    2807 1
   2900    2185    2383 1
   2901    2186    2215 1
   2902    2186    2783 1
   2903    2187    2318 1
   2904    2187    2505 1
   2905    2187    2752 1
   2906    2188    2423 1
   2907    2188    2660 1
   2908    2188    2726 1
   2909    2189    2490 1
   2910    2189    2613 1
   2911    2189    2775 1
   2912    2189    2823 1
   2913    2190    2420 1
   2914    2190    2445 1
   2915    2190    2633 1
   2916    2191    2202 1
   2917    2191    2208 1
   2918    2191    2396 1
   2919    2191    2629 1
   2920    2192    2418 1
   2921    2192    2560 1
   2922    2192    2587 1
   2923    2192    2775 1
   2924    2193    2203 1
   2925    2193    2226 1
   2926    2193    2576 1
   2927    2193    2577 1
   2928    2194    2204 1
   2929    2194    2206 1
   2930    2194    2777 1
   2931    2194    2791 1
   2932    2195    2665 1
   2933    2196    2336 1
   2934    2196    2568 1
   2935    2197    2258 1
   2936    2197    2787 1
   2937    2198    2382 1
   2938    2198    2453 1
   2939    2199    2264 1
   2940    2199    2449 1
   2941    2200    2382 1
   2942    2200    2878 1
   2943    2201    2808 1
   2944    2202    2453 1
   2945    2203    2408 1
   2946    2204    2332 1
   2947    2205    2431 1
   2948    2205    2763 1
   2949    2206    2264 1
   2950    2207    2760 1
   2951    2207    2785 1
   2952    2209    2574 1
   2953    2210    2277 1
   2954    2210    2290 1
   2955    2210    2301 1
   2956    2210    2515 1
   2957    2211    2458 1
   2958    2211    2537 1
   2959    2211    2552 1
   2960    2211    2634 1
   2961    2212    2302 1
   2962    2212    2510 1
   2963    2212    2539 1
   2964    2212    2623 1
   2965    2213    2257 1
   2966    2213    2290 1
   2967    2213    2561 1
   2968    2213    2562 1
   2969    2214    2517 1
   2970    2214    2590 1
   2971    2214    2656 1
   2972    2215    2268 1
   2973    2215    2370 1
   2974    2215    2758 1
   2975    2216    2468 1
   2976    2216    2809 1
   2977    2216    2863 1
   2978    2217    2394 1
   2979    2217    2415 1
   2980    2217    2470 1
   2981    2217    2600 1
   2982    2218    2239 1
   2983    2218    2546 1
   2984    2219    2264 1
   2985    2219    2621 1
   2986    2220    2336 1
   2987    2221    2430 1
   2988    2221    2527 1
   2989    2222    2336 1
   2990    2222    2449 1
   2991    2223    2286 1
   2992    2223    2668 1
   2993    2224    2737 1
   2994    2224    2917 1
   2995    2225    2236 1
   2996    2226    2287 1
   2997    2227    2694 1
   2998    2227    2786 1
   2999    2229    2238 1
   3000    2230    2547 1
   3001    2231    2450 1
   3002    2231    2569 1
   3003    2232    2619 1
   3004    2232    2789 1
   3005    2233    2307 1
   3006    2233    2355 1
   3007    2234    2325 1
   3008    2234    2352 1
   3009    2234    2391 1
   3010    2234    2811 1
   3011    2235    2303 1
   3012    2235    2442 1
   3013    2235    2469 1
   3014    2235    2472 1
   3015    2236    2373 1
   3016    2236    2608 1
   3017    2237    2249 1
   3018    2237    2267 1
   3019    2237    2491 1
   3020    2237    2695 1
   3021    2238    2540 1
   3022    2238    2588 1
   3023    2238    2790 1
   3024    2239    2256 1
   3025    2239    2351 1
   3026    2239    2517 1
   3027    2240    2342 1
   3028    2240    2582 1
   3029    2240    2774 1
   3030    2241    2242 1
   3031    2241    2296 1
   3032    2241    2347 1
   3033    2241    2753 1
   3034    2242    2621 1
   3035    2243    2664 1
   3036    2243    2788 1
   3037    2244    2646 1
   3038    2244    2812 1
   3039    2246    2616 1
   3040    2246    2640 1
   3041    2247    2283 1
   3042    2248    2265 1
   3043    2248    2500 1
   3044    2249    2570 1
   3045    2250    2450 1
   3046    2250    2546 1
   3047    2251    2403 1
   3048    2251    2526 1
   3049    2252    2504 1
   3050    2252    2787 1
   3051    2253    2356 1
   3052    2254    2688 1
   3053    2254    2693 1
   3054    2255    2310 1
   3055    2255    2736 1
   3056    2256    2574 1
   3057    2257    2712 1
   3058    2258    2368 1
   3059    2258    2481 1
   3060    2258    2707 1
   3061    2259    2414 1
   3062    2259    2695 1
   3063    2259    2813 1
   3064    2259    2834 1
   3065    2260    2361 1
   3066    2260    2445 1
   3067    2260    2585 1
   3068    2260    2653 1
   3069    2261    2511 1
   3070    2261    2635 1
   3071    2261    2697 1
   3072    2261    2797 1
   3073    2262    2339 1
   3074    2262    2614 1
   3075    2262    2685 1
   3076    2262    2814 1
   3077    2263    2275 1
   3078    2263    2279 1
   3079    2263    2493 1
   3080    2264    2345 1
   3081    2265    2269 1
   3082    2265    2368 1
   3083    2265    2658 1
   3084    2266    2407 1
   3085    2266    2763 1
   3086    2267    2717 1
   3087    2268    2405 1
   3088    2269    2666 1
   3089    2270    2282 1
   3090    2270    2430 1
   3091    2271    2644 1
   3092    2272    2283 1
   3093    2272    2691 1
   3094    2273    2380 1
   3095    2273    2452 1
   3096    2274    2501 1
   3097    2274    2547 1
   3098    2275    2670 1
   3099    2276    2288 1
   3100    2277    2353 1
   3101    2278    2474 1
   3102    2278    2668 1
   3103    2279    2357 1
   3104    2280    2285 1
   3105    2280    2456 1
   3106    2281    2507 1
   3107    2281    2610 1
   3108    2281    2656 1
   3109    2282    2324 1
   3110    2282    2444 1
   3111    2282    2533 1
   3112    2283    2304 1
   3113    2283    2320 1
   3114    2284    2363 1
   3115    2284    2372 1
   3116    2284    2438 1
   3117    2284    2581 1
   3118    2285    2374 1
   3119    2285    2464 1
   3120    2285    2561 1
   3121    2286    2484 1
   3122    2286    2509 1
   3123    2286    2529 1
   3124    2287    2365 1
   3125    2288    2301 1
   3126    2288    2395 1
   3127    2288    2565 1
   3128    2289    2664 1
   3129    2289    2711 1
   3130    2291    2406 1
   3131    2291    2475 1
   3132    2292    2716 1
   3133    2292    2786 1
   3134    2293    2383 1
   3135    2293    2408 1
   3136    2294    2786 1
   3137    2295    2329 1
   3138    2295    2523 1
   3139    2296    2766 1
   3140    2297    2378 1
   3141    2297    2522 1
   3142    2298    2406 1
   3143    2298    2622 1
   3144    2299    2498 1
   3145    2299    2716 1
   3146    2300    2479 1
   3147    2300    2761 1
   3148    2302    2310 1
   3149    2303    2331 1
   3150    2304    2454 1
   3151    2305    2488 1
   3152    2305    2773 1
   3153    2305    2803 1
   3154    2305    2810 1
   3155    2306    2422 1
   3156    2306    2447 1
   3157    2306    2516 1
   3158    2306    2559 1
   3159    2307    2554 1
   3160    2307    2563 1
   3161    2307    2772 1
   3162    2308    2315 1
   3163    2308    2794 1
   3164    2308    2798 1
   3165    2309    2467 1
   3166    2309    2701 1
   3167    2310    2419 1
   3168    2310    2708 1
   3169    2311    2325 1
   3170    2311    2393 1
   3171    2311    2510 1
   3172    2311    2780 1
   3173    2312    2326 1
   3174    2312    2612 1
   3175    2312    2628 1
   3176    2312    2815 1
   3177    2313    2527 1
   3178    2313    2574 1
   3179    2314    2546 1
   3180    2314    2718 1
   3181    2316    2618 1
   3182    2316    2742 1
   3183    2317    2615 1
   3184    2318    2475 1
   3185    2319    2547 1
   3186    2321    2380 1
   3187    2321    2594 1
   3188    2322    2426 1
   3189    2322    2620 1
   3190    2323    2479 1
   3191    2323    2712 1
   3192    2324    2476 1
   3193    2326    2667 1
   3194    2327    2329 1
   3195    2328    2521 1
   3196    2328    2885 1
   3197    2329    2625 1
   3198    2329    2758 1
   3199    2330    2484 1
   3200    2330    2730 1
   3201    2331    2361 1
   3202    2331    2495 1
   3203    2331    2565 1
   3204    2332    2350 1
   3205    2332    2720 1
   3206    2333    2339 1
   3207    2333    2350 1
   3208    2333    2672 1
   3209    2333    2683 1
   3210    2334    2543 1
   3211    2334    2608 1
   3212    2334    2910 1
   3213    2335    2424 1
   3214    2335    2512 1
   3215    2335    2577 1
   3216    2335    2686 1
   3217    2336    2418 1
   3218    2337    2405 1
   3219    2337    2689 1
   3220    2338    2525 1
   3221    2338    2621 1
   3222    2340    2550 1
   3223    2340    2860 1
   3224    2341    2550 1
   3225    2342    2379 1
   3226    2343    2595 1
   3227    2343    2618 1
   3228    2344    2377 1
   3229    2344    2548 1
   3230    2345    2712 1
   3231    2346    2551 1
   3232    2347    2816 1
   3233    2348    2427 1
   3234    2348    2713 1
   3235    2349    2499 1
   3236    2349    2501 1
   3237    2351    2430 1
   3238    2352    2594 1
   3239    2353    2363 1
   3240    2353    2730 1
   3241    2354    2364 1
   3242    2355    2600 1
   3243    2355    2678 1
   3244    2355    2790 1
   3245    2356    2541 1
   3246    2356    2557 1
   3247    2357    2439 1
   3248    2357    2514 1
   3249    2357    2768 1
   3250    2358    2447 1
   3251    2358    2538 1
   3252    2358    2671 1
   3253    2359    2372 1
   3254    2359    2509 1
   3255    2359    2799 1
   3256    2359    2914 1
   3257    2360    2391 1
   3258    2360    2419 1
   3259    2360    2673 1
   3260    2362    2451 1
   3261    2362    2550 1
   3262    2364    2401 1
   3263    2365    2404 1
   3264    2366    2401 1
   3265    2366    2527 1
   3266    2367    2667 1
   3267    2367    2737 1
   3268    2369    2524 1
   3269    2370    2687 1
   3270    2371    2593 1
   3271    2373    2548 1
   3272    2374    2426 1
   3273    2375    2570 1
   3274    2376    2454 1
   3275    2377    2625 1
   3276    2377    2722 1
   3277    2377    2778 1
   3278    2378    2437 1
   3279    2378    2513 1
   3280    2378    2662 1
   3281    2379    2587 1
   3282    2379    2801 1
   3283    2379    2817 1
   3284    2380    2680 1
   3285    2381    2461 1
   3286    2381    2518 1
   3287    2381    2603 1
   3288    2382    2659 1
   3289    2384    2461 1
   3290    2384    2516 1
   3291    2384    2604 1
   3292    2384    2750 1
   3293    2385    2473 1
   3294    2385    2525 1
   3295    2386    2691 1
   3296    2386    2818 1
   3297    2387    2528 1
   3298    2387    2739 1
   3299    2388    2431 1
   3300    2388    2785 1
   3301    2389    2474 1
   3302    2389    2621 1
   3303    2390    2427 1
   3304    2392    2616 1
   3305    2392    2717 1
   3306    2393    2738 1
   3307    2397    2503 1
   3308    2397    2819 1
   3309    2398    2526 1
   3310    2399    2620 1
   3311    2399    2645 1
   3312    2400    2475 1
   3313    2400    2619 1
   3314    2401    2578 1
   3315    2402    2433 1
   3316    2402    2635 1
   3317    2402    2677 1
   3318    2402    2684 1
   3319    2403    2757 1
   3320    2403    2776 1
   3321    2404    2489 1
   3322    2404    2586 1
   3323    2405    2552 1
   3324    2405    2677 1
   3325    2406    2703 1
   3326    2406    2756 1
   3327    2407    2520 1
   3328    2407    2542 1
   3329    2407    2582 1
   3330    2408    2555 1
   3331    2408    2721 1
   3332    2409    2692 1
   3333    2410    2449 1
   3334    2410    2644 1
   3335    2411    2478 1
   3336    2411    2620 1
   3337    2412    2480 1
   3338    2412    2740 1
   3339    2413    2526 1
   3340    2413    2617 1
   3341    2414    2738 1
   3342    2416    2551 1
   3343    2416    2568 1
   3344    2417    2504 1
   3345    2417    2597 1
   3346    2420    2449 1
   3347    2421    2783 1
   3348    2422    2641 1
   3349    2423    2571 1
   3350    2424    2740 1
   3351    2425    2505 1
   3352    2425    2508 1
   3353    2425    2626 1
   3354    2425    2662 1
   3355    2426    2462 1
   3356    2426    2564 1
   3357    2427    2603 1
   3358    2427    2792 1
   3359    2428    2442 1
   3360    2428    2443 1
   3361    2428    2605 1
   3362    2428    2869 1
   3363    2429    2464 1
   3364    2429    2483 1
   3365    2429    2699 1
   3366    2429    2732 1
   3367    2430    2566 1
   3368    2431    2636 1
   3369    2432    2626 1
   3370    2432    2650 1
   3371    2432    2732 1
   3372    2432    2793 1
   3373    2433    2595 1
   3374    2434    2689 1
   3375    2434    2690 1
   3376    2435    2645 1
   3377    2435    2788 1
   3378    2436    2502 1
   3379    2436    2642 1
   3380    2437    2788 1
   3381    2438    2643 1
   3382    2439    2643 1
   3383    2440    2502 1
   3384    2440    2690 1
   3385    2441    2452 1
   3386    2443    2455 1
   3387    2444    2502 1
   3388    2446    2640 1
   3389    2448    2735 1
   3390    2448    2784 1
   3391    2450    2781 1
   3392    2450    2793 1
   3393    2451    2532 1
   3394    2451    2553 1
   3395    2451    2557 1
   3396    2452    2701 1
   3397    2453    2535 1
   3398    2453    2589 1
   3399    2454    2631 1
   3400    2455    2465 1
   3401    2455    2491 1
   3402    2455    2589 1
   3403    2456    2457 1
   3404    2456    2469 1
   3405    2456    2796 1
   3406    2457    2639 1
   3407    2459    2615 1
   3408    2460    2598 1
   3409    2462    2501 1
   3410    2463    2569 1
   3411    2463    2784 1
   3412    2465    2616 1
   3413    2466    2549 1
   3414    2466    2646 1
   3415    2468    2663 1
   3416    2470    2665 1
   3417    2471    2572 1
   3418    2471    2617 1
   3419    2473    2632 1
   3420    2473    2820 1
   3421    2474    2496 1
   3422    2474    2725 1
   3423    2475    2686 1
   3424    2476    2482 1
   3425    2476    2748 1
   3426    2477    2632 1
   3427    2477    2725 1
   3428    2478    2637 1
   3429    2478    2651 1
   3430    2479    2699 1
   3431    2479    2797 1
   3432    2480    2586 1
   3433    2480    2724 1
   3434    2481    2761 1
   3435    2482    2783 1
   3436    2483    2645 1
   3437    2485    2759 1
   3438    2485    2760 1
   3439    2486    2693 1
   3440    2486    2711 1
   3441    2487    2592 1
   3442    2487    2693 1
   3443    2488    2693 1
   3444    2489    2497 1
   3445    2490    2821 1
   3446    2492    2596 1
   3447    2492    2764 1
   3448    2493    2761 1
   3449    2494    2783 1
   3450    2496    2670 1
   3451    2497    2513 1
   3452    2497    2533 1
   3453    2497    2590 1
   3454    2498    2562 1
   3455    2498    2719 1
   3456    2498    2769 1
   3457    2499    2535 1
   3458    2499    2627 1
   3459    2499    2702 1
   3460    2500    2579 1
   3461    2500    2731 1
   3462    2500    2770 1
   3463    2501    2601 1
   3464    2502    2770 1
   3465    2503    2610 1
   3466    2503    2746 1
   3467    2504    2556 1
   3468    2504    2583 1
   3469    2506    2784 1
   3470    2506    2787 1
   3471    2507    2691 1
   3472    2508    2690 1
   3473    2511    2690 1
   3474    2512    2689 1
   3475    2514    2668 1
   3476    2518    2871 1
   3477    2519    2549 1
   3478    2519    2760 1
   3479    2520    2764 1
   3480    2521    2624 1
   3481    2521    2700 1
   3482    2521    2800 1
   3483    2522    2576 1
   3484    2522    2657 1
   3485    2523    2674 1
   3486    2523    2859 1
   3487    2523    2880 1
   3488    2524    2530 1
   3489    2525    2822 1
   3490    2525    2823 1
   3491    2526    2728 1
   3492    2527    2648 1
   3493    2528    2558 1
   3494    2528    2805 1
   3495    2531    2592 1
   3496    2531    2824 1
   3497    2534    2617 1
   3498    2536    2569 1
   3499    2536    2642 1
   3500    2537    2572 1
   3501    2539    2786 1
   3502    2540    2665 1
   3503    2543    2544 1
   3504    2544    2591 1
   3505    2544    2723 1
   3506    2544    2731 1
   3507    2545    2628 1
   3508    2545    2795 1
   3509    2546    2648 1
   3510    2547    2653 1
   3511    2548    2755 1
   3512    2548    2825 1
   3513    2549    2774 1
   3514    2549    2826 1
   3515    2550    2661 1
   3516    2551    2706 1
   3517    2553    2871 1
   3518    2554    2860 1
   3519    2555    2617 1
   3520    2556    2569 1
   3521    2560    2886 1
   3522    2563    2715 1
   3523    2566    2575 1
   3524    2567    2860 1
   3525    2568    2924 1
   3526    2570    2681 1
   3527    2570    2804 1
   3528    2571    2588 1
   3529    2571    2601 1
   3530    2571    2798 1
   3531    2572    2682 1
   3532    2572    2805 1
   3533    2573    2636 1
   3534    2573    2637 1
   3535    2573    2754 1
   3536    2574    2584 1
   3537    2575    2723 1
   3538    2575    2748 1
   3539    2578    2782 1
   3540    2579    2782 1
   3541    2580    2593 1
   3542    2580    2694 1
   3543    2581    2593 1
   3544    2583    2782 1
   3545    2584    2907 1
   3546    2585    2644 1
   3547    2592    2624 1
   3548    2592    2698 1
   3549    2594    2652 1
   3550    2595    2607 1
   3551    2595    2685 1
   3552    2596    2660 1
   3553    2596    2754 1
   3554    2596    2794 1
   3555    2597    2729 1
   3556    2597    2918 1
   3557    2598    2604 1
   3558    2598    2696 1
   3559    2598    2747 1
   3560    2599    2663 1
   3561    2599    2718 1
   3562    2602    2643 1
   3563    2602    2919 1
   3564    2605    2669 1
   3565    2606    2619 1
   3566    2606    2641 1
   3567    2607    2622 1
   3568    2609    2669 1
   3569    2611    2711 1
   3570    2611    2741 1
   3571    2612    2766 1
   3572    2613    2646 1
   3573    2614    2879 1
   3574    2615    2654 1
   3575    2615    2876 1
   3576    2616    2772 1
   3577    2618    2703 1
   3578    2618    2767 1
   3579    2620    2678 1
   3580    2622    2682 1
   3581    2622    2743 1
   3582    2630    2787 1
   3583    2631    2853 1
   3584    2633    2712 1
   3585    2634    2827 1
   3586    2638    2762 1
   3587    2638    2763 1
   3588    2639    2675 1
   3589    2639    2751 1
   3590    2640    2734 1
   3591    2640    2828 1
   3592    2641    2657 1
   3593    2641    2747 1
   3594    2642    2650 1
   3595    2642    2658 1
   3596    2643    2707 1
   3597    2644    2802 1
   3598    2645    2752 1
   3599    2646    2777 1
   3600    2647    2782 1
   3601    2649    2716 1
   3602    2649    2741 1
   3603    2651    2762 1
   3604    2654    2870 1
   3605    2655    2742 1
   3606    2655    2762 1
   3607    2659    2669 1
   3608    2663    2913 1
   3609    2664    2676 1
   3610    2664    2710 1
   3611    2665    2705 1
   3612    2666    2697 1
   3613    2666    2704 1
   3614    2666    2720 1
   3615    2667    2829 1
   3616    2667    2830 1
   3617    2668    2753 1
   3618    2669    2831 1
   3619    2670    2802 1
   3620    2672    2882 1
   3621    2673    2832 1
   3622    2674    2687 1
   3623    2675    2738 1
   3624    2676    2713 1
   3625    2679    2713 1
   3626    2679    2715 1
   3627    2681    2738 1
   3628    2683    2766 1
   3629    2684    2687 1
   3630    2687    2704 1
   3631    2688    2709 1
   3632    2688    2833 1
   3633    2688    2834 1
   3634    2689    2724 1
   3635    2691    2698 1
   3636    2692    2746 1
   3637    2692    2800 1
   3638    2692    2835 1
   3639    2694    2769 1
   3640    2694    2779 1
   3641    2700    2713 1
   3642    2708    2735 1
   3643    2709    2765 1
   3644    2710    2717 1
   3645    2711    2781 1
   3646    2714    2771 1
   3647    2714    2836 1
   3648    2714    2837 1
   3649    2715    2734 1
   3650    2715    2749 1
   3651    2716    2796 1
   3652    2717    2727 1
   3653    2718    2729 1
   3654    2718    2803 1
   3655    2719    2761 1
   3656    2721    2789 1
   3657    2722    2737 1
   3658    2726    2762 1
   3659    2728    2789 1
   3660    2733    2887 1
   3661    2735    2916 1
   3662    2736    2744 1
   3663    2736    2773 1
   3664    2736    2780 1
   3665    2737    2755 1
   3666    2739    2745 1
   3667    2741    2744 1
   3668    2741    2751 1
   3669    2742    2791 1
   3670    2743    2759 1
   3671    2745    2838 1
   3672    2749    2765 1
   3673    2756    2785 1
   3674    2757    2785 1
   3675    2759    2776 1
   3676    2759    2837 1
   3677    2763    2767 1
   3678    2765    2839 1
   3679    2766    2768 1
   3680    2778    2888 1
   3681    2779    2784 1
   3682    2788    2792 1
   3683    2799    2919 1
   3684    2806    2840 1
   3685    2808    2864 1
   3686    2808    2865 1
   3687    2808    2927 1
   3688    2809    2853 1
   3689    2810    2853 1
   3690    2811    2883 1
   3691    2813    2841 1
   3692    2814    2856 1
   3693    2815    2842 1
   3694    2817    2843 1
   3695    2820    2844 1
   3696    2822    2845 1
   3697    2825    2846 1
   3698    2826    2847 1
   3699    2828    2848 1
   3700    2829    2856 1
   3701    2830    2849 1
   3702    2831    2884 1
   3703    2833    2850 1
   3704    2835    2851 1
   3705    2836    2889 1
   3706    2839    2852 1
   3707    2853    2854 1
   3708    2854    2855 1
   3709    2856    2857 1
   3710    2856    2859 1
   3711    2857    2858 1
   3712    2860    2861 1
   3713    2861    2862 1
   3714    2863    2890 1
   3715    2864    2870 1
   3716    2865    2868 1
   3717    2866    2871 1
   3718    2867    2868 1
   3719    2867    2928 1
   3720    2868    2869 1
   3721    2870    2874 1
   3722    2871    2872 1
   3723    2872    2873 1
   3724    2874    2875 1
   3725    2876    2877 1
   3726    2880    2881 1
   3727    2891    2896 1
   3728    2892    2904 1
   3729    2895    2901 1
   3730    2896    2899 1
   3731    2907    2912 1
   3732    2908    2920 1
   3733    2911    2917 1
   3734    2912    2915 1
   3735    2925    2926 1
   3736    2927    2928 1

@<TRIPOS>CRYSIN
 40.3148 41.4320 53.6079 90.0000 90.0000 90.0000 1 1
